#======================================================================
# Crystal Data Generated By AuToFF
#----------------------------------------------------------------------

data_AuToFF_phase_1

_cell_length_a                         23.2840
_cell_length_b                         23.2840
_cell_length_c                         3.4420
_cell_angle_alpha                      90.00
_cell_angle_beta                       90.00
_cell_angle_gamma                      120.00
_symmetry_space_group_name_H-M_alt     'P 1'
_symmetry_space_group_IT_number        1

loop_
_space_group_symop_operation_xyz
   'x, y, z'

loop_
   _atom_site_label
   _atom_site_type_symbol
   _atom_site_fract_x
   _atom_site_fract_y
   _atom_site_fract_z
   _atom_site_charge
opls_641-0    N    0.04210000    0.06648999    0.80789076    -0.38290000
opls_641-1    N    0.93351003    0.97560966    0.80789076    -0.37190000
opls_641-2    N    0.02438972    0.95789986    0.80789076    -0.37190000
opls_642-3    C    0.06670002    0.02441018    0.80789076    0.42820000
opls_142-4    C    0.13852986    0.04979980    0.80789076    -0.15240000
opls_142-5    C    0.18263011    0.11442017    0.80789076    -0.08090000
opls_700-6    C    0.25542013    0.14293011    0.80789076    -0.00300000
opls_145-7    C    0.29380010    0.21222998    0.80789076    -0.09350000
opls_145-8    C    0.36295986    0.24413996    0.80789076    -0.09220000
opls_700-9    C    0.39487004    0.20700001    0.80789076    0.14770000
opls_145-10    C    0.35738980    0.13785983    0.80789076    -0.17980000
opls_166-11    C    0.28738991    0.10466988    0.80789076    0.27890000
opls_261-12    C    0.46613005    0.23986017    0.80789076    -0.06390000
opls_261-13    C    0.52598015    0.26765004    0.80789076    -0.06390000
opls_700-14    C    0.59725986    0.30091983    0.80789076    0.15970000
opls_145-15    C    0.63428991    0.37027971    0.80789076    -0.08170000
opls_181-16    C    0.71528996    0.71490994    0.80789076    -0.17240000
opls_642-17    C    0.97559015    0.04229008    0.80789076    0.42820000
opls_142-18    C    0.95019992    0.08873002    0.80789076    -0.15240000
opls_142-19    C    0.88557975    0.06820984    0.80789076    -0.08090000
opls_700-20    C    0.85707005    0.11249004    0.80789076    -0.00300000
opls_145-21    C    0.78777002    0.08156992    0.80789076    -0.09350000
opls_145-22    C    0.75585991    0.11881997    0.80789076    -0.09220000
opls_700-23    C    0.79299997    0.18786989    0.80789076    0.14770000
opls_145-24    C    0.86213999    0.21952993    0.80789076    -0.17980000
opls_166-25    C    0.89532999    0.18271976    0.80789076    0.27890000
opls_261-26    C    0.76013980    0.22626998    0.80789076    -0.06390000
opls_261-27    C    0.73234988    0.25832972    0.80789076    -0.06390000
opls_700-28    C    0.69908007    0.29634001    0.80789076    0.15970000
opls_145-29    C    0.62972016    0.26400999    0.80789076    -0.08170000
opls_181-30    C    0.28508987    0.00037987    0.80789076    -0.17230000
opls_642-31    C    0.95770983    0.93329974    0.80789076    0.42820000
opls_142-32    C    0.91126998    0.86146969    0.80789076    -0.15240000
opls_142-33    C    0.93179014    0.81737000    0.80789076    -0.08090000
opls_700-34    C    0.88750981    0.74457984    0.80789076    -0.00300000
opls_145-35    C    0.91842964    0.70619960    0.80789076    -0.09350000
opls_145-36    C    0.88118023    0.63704007    0.80789076    -0.09220000
opls_700-37    C    0.81212998    0.60513009    0.80789076    0.14770000
opls_145-38    C    0.78046997    0.64260975    0.80789076    -0.17980000
opls_166-39    C    0.81727985    0.71260986    0.80789076    0.27900000
opls_261-40    C    0.77372972    0.53386985    0.80789076    -0.06390000
opls_261-41    C    0.74166972    0.47401974    0.80789076    -0.06390000
opls_700-42    C    0.70366006    0.40274016    0.80789076    0.15970000
opls_145-43    C    0.73599010    0.36570981    0.80789076    -0.08170000
opls_181-44    C    0.99961992    0.28470969    0.80789076    -0.17240000
opls_179-45    O    0.78589963    0.75091968    0.80789076    -0.15840000
opls_179-46    O    0.24908004    0.03498022    0.80789076    -0.15840000
opls_179-47    O    0.96501990    0.21410010    0.80789076    -0.15840000
opls_144-48    H    0.15822975    0.01375980    0.80789076    0.04970000
opls_144-49    H    0.16506999    0.15218002    0.80789076    0.04970000
opls_146-50    H    0.26773976    0.24263980    0.80789076    0.04970000
opls_146-51    H    0.39337982    0.30061980    0.80789076    0.04970000
opls_146-52    H    0.38325014    0.10725015    0.80789076    0.04970000
opls_146-53    H    0.60796012    0.40044008    0.80789076    0.04970000
opls_185-54    H    0.69703990    0.66100987    0.88871877    0.06830000
opls_185-55    H    0.69628010    0.71715993    0.50624927    0.06830000
opls_185-56    H    0.69599999    0.73771978    0.02868972    0.06830000
opls_144-57    H    0.98623987    0.14446995    0.80789076    0.04970000
opls_144-58    H    0.84782017    0.01288995    0.80789076    0.04970000
opls_146-59    H    0.75736017    0.02510000    0.80789076    0.04970000
opls_146-60    H    0.69937985    0.09275986    0.80789076    0.04970000
opls_146-61    H    0.89274997    0.27599985    0.80789076    0.04970000
opls_146-62    H    0.59955999    0.20751974    0.80789076    0.04970000
opls_185-63    H    0.33898996    0.03603008    0.88871877    0.06830000
opls_185-64    H    0.28283983    0.97911978    0.50624927    0.06830000
opls_185-65    H    0.26228004    0.95828023    0.02868972    0.06830000
opls_144-66    H    0.85552970    0.84176976    0.80789076    0.04970000
opls_144-67    H    0.98710984    0.83493003    0.80789076    0.04970000
opls_146-68    H    0.97489982    0.73225970    0.80789076    0.04970000
opls_146-69    H    0.90724009    0.60661984    0.80789076    0.04970000
opls_146-70    H    0.72399989    0.61675000    0.80789076    0.04970000
opls_146-71    H    0.79247965    0.39203969    0.80789076    0.04970000
opls_185-72    H    0.96397015    0.30296005    0.88871877    0.06830000
opls_185-73    H    0.02087983    0.30371980    0.50624927    0.06830000
opls_185-74    H    0.04171998    0.30399999    0.02868972    0.06830000
