#======================================================================
# Crystal Data Generated By AuToFF
#----------------------------------------------------------------------

data_AuToFF_phase_1

_cell_length_a                         33.5568
_cell_length_b                         33.5568
_cell_length_c                         9.4430
_cell_angle_alpha                      90.00
_cell_angle_beta                       90.00
_cell_angle_gamma                      120.00
_symmetry_space_group_name_H-M_alt     'P 1'
_symmetry_space_group_IT_number        1

loop_
_space_group_symop_operation_xyz
   'x, y, z'

loop_
   _atom_site_label
   _atom_site_type_symbol
   _atom_site_fract_x
   _atom_site_fract_y
   _atom_site_fract_z
   _atom_site_charge
opls_522-0    C    0.29186993    0.30260995    0.16984962    -0.11790000
opls_521-1    C    0.29250996    0.26132995    0.16923965    0.17660000
opls_142-2    C    0.25049002    0.21630988    0.16941015    0.08300000
opls_145-3    C    0.16792006    0.16848984    0.18582018    0.22020000
opls_145-4    C    0.12691003    0.16761995    0.15613047    -0.15050000
opls_523-5    C    0.08523987    0.12617993    0.15575982    -0.11690000
opls_700-6    C    0.08399007    0.08470998    0.18566028    0.00990000
opls_523-7    C    0.12515000    0.08578014    0.21803982    -0.08130000
opls_145-8    C    0.16659991    0.12719985    0.21943027    -0.11750000
opls_531-9    C    0.04013989    0.04052986    0.18397967    0.36970000
opls_522-10    C    0.95854006    0.63594008    0.50318013    -0.11790000
opls_521-11    C    0.95918009    0.59466007    0.50257016    0.17660000
opls_142-12    C    0.91715985    0.54964000    0.50273960    -0.02700000
opls_145-13    C    0.83458989    0.50181996    0.51914963    0.22020000
opls_145-14    C    0.79358016    0.50095007    0.48945992    -0.15050000
opls_523-15    C    0.75191000    0.45951005    0.48909033    -0.11690000
opls_700-16    C    0.75066019    0.41804010    0.51898973    0.00990000
opls_523-17    C    0.79181995    0.41910991    0.55137033    -0.08130000
opls_145-18    C    0.83327004    0.46052997    0.55275972    -0.11770000
opls_531-19    C    0.70681002    0.37385999    0.51731018    0.36970000
opls_522-20    C    0.62519998    0.96928018    0.83652017    -0.11790000
opls_521-21    C    0.62584001    0.92800017    0.83591020    0.17640000
opls_142-22    C    0.58382007    0.88298010    0.83607964    0.08300000
opls_145-23    C    0.50125011    0.83516006    0.85248967    0.22020000
opls_145-24    C    0.46024008    0.83429017    0.82279996    -0.15050000
opls_523-25    C    0.41857022    0.79285015    0.82243037    -0.11680000
opls_700-26    C    0.41732011    0.75138020    0.85232977    0.00990000
opls_523-27    C    0.45847987    0.75245002    0.88471037    -0.08130000
opls_145-28    C    0.49992996    0.79387007    0.88609976    -0.11770000
opls_531-29    C    0.37346994    0.70720009    0.85065022    0.36970000
opls_522-30    C    0.69739019    0.98926019    0.16984962    -0.11790000
opls_521-31    C    0.73866992    0.03117989    0.16923965    0.17670000
opls_142-32    C    0.78368998    0.03418013    0.16941015    -0.02700000
opls_145-33    C    0.83151013    0.99943016    0.18582018    0.22020000
opls_145-34    C    0.83238015    0.95929017    0.15613047    -0.15050000
opls_523-35    C    0.87381996    0.95905996    0.15575982    -0.11690000
opls_700-36    C    0.91528995    0.99928014    0.18566028    0.00990000
opls_523-37    C    0.91421988    0.03936989    0.21803982    -0.08130000
opls_145-38    C    0.87280020    0.03940017    0.21943027    -0.11760000
opls_531-39    C    0.95947017    0.99961013    0.18397967    0.36970000
opls_522-40    C    0.36405985    0.32258997    0.50318013    -0.11790000
opls_521-41    C    0.40534004    0.36451001    0.50257016    0.17660000
opls_142-42    C    0.45035993    0.36750990    0.50273960    0.08300000
opls_145-43    C    0.49818008    0.33275994    0.51914963    0.22340000
opls_145-44    C    0.49905010    0.29261995    0.48945992    -0.15050000
opls_523-45    C    0.54049009    0.29239009    0.48909033    -0.11690000
opls_700-46    C    0.58195991    0.33260991    0.51898973    0.00990000
opls_523-47    C    0.58089001    0.37270001    0.55137033    -0.08120000
opls_145-48    C    0.53946986    0.37272995    0.55275972    -0.11770000
opls_531-49    C    0.62613983    0.33293991    0.51731018    0.36970000
opls_522-50    C    0.03072007    0.65593007    0.83652017    -0.11790000
opls_521-51    C    0.07199996    0.69785011    0.83591020    0.17670000
opls_142-52    C    0.11702015    0.70085000    0.83607964    -0.02700000
opls_145-53    C    0.16484000    0.66610004    0.85248967    0.22020000
opls_145-54    C    0.16571002    0.62596005    0.82279996    -0.15050000
opls_523-55    C    0.20715001    0.62573019    0.82243037    -0.11690000
opls_700-56    C    0.24862012    0.66595001    0.85232977    0.00990000
opls_523-57    C    0.24754993    0.70604011    0.88471037    -0.08130000
opls_145-58    C    0.20613008    0.70607005    0.88609976    -0.11770000
opls_531-59    C    0.29280004    0.66628001    0.85065022    0.36990000
opls_522-60    C    0.01074005    0.70813020    0.16984962    -0.11790000
opls_521-61    C    0.96882012    0.70749017    0.16923965    0.17660000
opls_142-62    C    0.96582000    0.74951000    0.16941015    -0.02680000
opls_145-63    C    0.00057011    0.83207999    0.18582018    0.22340000
opls_145-64    C    0.04070982    0.87308988    0.15613047    -0.15050000
opls_523-65    C    0.04094017    0.91476010    0.15575982    -0.11690000
opls_700-66    C    0.00071998    0.91600989    0.18566028    0.00990000
opls_523-67    C    0.96063012    0.87484997    0.21803982    -0.08130000
opls_145-68    C    0.96059988    0.83339997    0.21943027    -0.11770000
opls_531-69    C    0.00038994    0.95986001    0.18397967    0.36970000
opls_522-70    C    0.67741000    0.04145998    0.50318013    -0.11790000
opls_521-71    C    0.63549007    0.04081994    0.50257016    0.17630000
opls_142-72    C    0.63249013    0.08284012    0.50273960    -0.02700000
opls_145-73    C    0.66723994    0.16541012    0.51914963    0.22390000
opls_145-74    C    0.70737995    0.20642000    0.48945992    -0.15050000
opls_523-75    C    0.70760982    0.24808988    0.48909033    -0.11690000
opls_700-76    C    0.66739011    0.24934001    0.51898973    0.01000000
opls_523-77    C    0.62729995    0.20818009    0.55137033    -0.08120000
opls_145-78    C    0.62727001    0.16673010    0.55275972    -0.11770000
opls_531-79    C    0.66706007    0.29319013    0.51731018    0.36970000
opls_522-80    C    0.34406992    0.37480008    0.83652017    -0.11770000
opls_521-81    C    0.30214999    0.37416004    0.83591020    0.17630000
opls_142-82    C    0.29914987    0.41617988    0.83607964    -0.02680000
opls_145-83    C    0.33389998    0.49874987    0.85248967    0.22340000
opls_145-84    C    0.37404016    0.53976010    0.82279996    -0.15050000
opls_523-85    C    0.37427004    0.58142998    0.82243037    -0.11690000
opls_700-86    C    0.33405003    0.58268011    0.85232977    0.00990000
opls_523-87    C    0.29396016    0.54152019    0.88471037    -0.08130000
opls_145-88    C    0.29393005    0.50006985    0.88609976    -0.11770000
opls_531-89    C    0.33371981    0.62652988    0.85065022    0.36980000
opls_522-90    C    0.30261002    0.29187015    0.83015038    -0.11790000
opls_521-91    C    0.26133013    0.29251018    0.83076035    0.17660000
opls_142-92    C    0.21631000    0.25049000    0.83058985    0.08310000
opls_145-93    C    0.16849011    0.16792001    0.81417982    0.22020000
opls_145-94    C    0.16761994    0.12691012    0.84386953    -0.15050000
opls_523-95    C    0.12618006    0.08523990    0.84424018    -0.11690000
opls_700-96    C    0.08471009    0.08399011    0.81433972    0.00990000
opls_523-97    C    0.08578015    0.12515003    0.78196018    -0.08120000
opls_145-98    C    0.12719991    0.16660003    0.78056973    -0.11770000
opls_531-99    C    0.04052993    0.04013999    0.81602033    0.36970000
opls_522-100    C    0.96927998    0.62519992    0.16347983    -0.11790000
opls_521-101    C    0.92800008    0.62583996    0.16408980    0.17630000
opls_142-102    C    0.88298013    0.58382012    0.16392036    0.08300000
opls_145-103    C    0.83515994    0.50125013    0.14751033    0.22020000
opls_145-104    C    0.83428989    0.46023990    0.17720004    -0.15050000
opls_523-105    C    0.79284989    0.41857002    0.17756963    -0.11690000
opls_700-106    C    0.75138005    0.41731989    0.14767023    0.00990000
opls_523-107    C    0.75244998    0.45848015    0.11528963    -0.08130000
opls_145-108    C    0.79387003    0.49993015    0.11390024    -0.11770000
opls_531-109    C    0.70720006    0.37347012    0.14934978    0.36970000
opls_522-110    C    0.63593990    0.95854002    0.49681987    -0.11790000
opls_521-111    C    0.59466000    0.95918006    0.49742984    0.17660000
opls_142-112    C    0.54963987    0.91715988    0.49726040    -0.02700000
opls_145-113    C    0.50181999    0.83458988    0.48085037    0.22020000
opls_145-114    C    0.50095011    0.79358000    0.51054008    -0.15040000
opls_523-115    C    0.45951011    0.75191012    0.51090967    -0.11690000
opls_700-116    C    0.41803997    0.75065999    0.48101027    0.00990000
opls_523-117    C    0.41911002    0.79181991    0.44862967    -0.08130000
opls_145-118    C    0.46053008    0.83326990    0.44724028    -0.11770000
opls_531-119    C    0.37385981    0.70680987    0.48268982    0.36970000
opls_522-120    C    0.98925998    0.69739005    0.83015038    -0.11790000
opls_521-121    C    0.03118002    0.73867005    0.83076035    0.17660000
opls_142-122    C    0.03418015    0.78369012    0.83058985    -0.02700000
opls_145-123    C    0.99943022    0.83151016    0.81417982    0.22020000
opls_145-124    C    0.95929008    0.83238005    0.84386953    -0.15050000
opls_523-125    C    0.95905994    0.87382007    0.84424018    -0.11690000
opls_700-126    C    0.99928009    0.91529002    0.81433972    0.00990000
opls_523-127    C    0.03937003    0.91422021    0.78196018    -0.08130000
opls_145-128    C    0.03940006    0.87280015    0.78056973    -0.11770000
opls_531-129    C    0.99961003    0.95947014    0.81602033    0.36970000
opls_522-130    C    0.65593010    0.03072017    0.16347983    -0.11780000
opls_521-131    C    0.69784997    0.07199983    0.16408980    0.17660000
opls_142-132    C    0.70084980    0.11701990    0.16392036    -0.02690000
opls_145-133    C    0.66609988    0.16483994    0.14751033    0.22020000
opls_145-134    C    0.62596021    0.16571017    0.17720004    -0.15050000
opls_523-135    C    0.62572990    0.20714985    0.17756963    -0.11690000
opls_700-136    C    0.66595022    0.24862015    0.14767023    0.00990000
opls_523-137    C    0.70603999    0.24754998    0.11528963    -0.08130000
opls_145-138    C    0.70607002    0.20612993    0.11390024    -0.11770000
opls_531-139    C    0.66627998    0.29279991    0.14934978    0.36980000
opls_522-140    C    0.32258985    0.36405992    0.49681987    -0.11770000
opls_521-141    C    0.36450989    0.40533993    0.49742984    0.17630000
opls_142-142    C    0.36751002    0.45036000    0.49726040    0.08300000
opls_145-143    C    0.33276009    0.49818004    0.48085037    0.22330000
opls_145-144    C    0.29261996    0.49904993    0.51054008    -0.15050000
opls_523-145    C    0.29239011    0.54048995    0.51090967    -0.11690000
opls_700-146    C    0.33260996    0.58195990    0.48101027    0.00990000
opls_523-147    C    0.37269991    0.58089009    0.44862967    -0.08130000
opls_145-148    C    0.37272993    0.53947003    0.44724028    -0.11770000
opls_531-149    C    0.33293990    0.62614001    0.48268982    0.36970000
opls_522-150    C    0.70813017    0.01074015    0.83015038    -0.11780000
opls_521-151    C    0.70749003    0.96882011    0.83076035    0.17660000
opls_142-152    C    0.74950985    0.96581987    0.83058985    -0.02680000
opls_145-153    C    0.83207996    0.00056984    0.81417982    0.22350000
opls_145-154    C    0.87308998    0.04070983    0.84386953    -0.15050000
opls_523-155    C    0.91476000    0.04094004    0.84424018    -0.11690000
opls_700-156    C    0.91600982    0.00071986    0.81433972    0.00990000
opls_523-157    C    0.87484999    0.96063011    0.78196018    -0.08130000
opls_145-158    C    0.83340020    0.96060017    0.78056973    -0.11770000
opls_531-159    C    0.95986004    0.00038987    0.81602033    0.37000000
opls_522-160    C    0.37479983    0.34406993    0.16347983    -0.11770000
opls_521-161    C    0.37415998    0.30214989    0.16408980    0.17630000
opls_142-162    C    0.41617998    0.29915000    0.16392036    -0.02680000
opls_145-163    C    0.49875009    0.33389996    0.14751033    0.22340000
opls_145-164    C    0.53976011    0.37403995    0.17720004    -0.15050000
opls_523-165    C    0.58143012    0.37427016    0.17756963    -0.11690000
opls_700-166    C    0.58267994    0.33404999    0.14767023    0.01000000
opls_523-167    C    0.54151995    0.29395989    0.11528963    -0.08130000
opls_145-168    C    0.50006986    0.29392995    0.11390024    -0.11770000
opls_531-169    C    0.62652987    0.33371999    0.14934978    0.36990000
opls_522-170    C    0.04146005    0.67741003    0.49681987    -0.11790000
opls_521-171    C    0.04081990    0.63548999    0.49742984    0.17630000
opls_142-172    C    0.08284019    0.63249010    0.49726040    -0.02700000
opls_145-173    C    0.16541001    0.66724006    0.48085037    0.22390000
opls_145-174    C    0.20642002    0.70738005    0.51054008    -0.15050000
opls_523-175    C    0.24808987    0.70760991    0.51090967    -0.11690000
opls_700-176    C    0.24934016    0.66739009    0.48101027    0.00990000
opls_523-177    C    0.20817986    0.62729999    0.44862967    -0.08130000
opls_145-178    C    0.16673008    0.62727005    0.44724028    -0.11770000
opls_531-179    C    0.29319008    0.66706009    0.48268982    0.36970000
opls_523-180    C    0.33333000    0.34415011    0.16666949    -0.07980000
opls_523-181    C    0.99999995    0.67747988    0.50000000    -0.07970000
opls_523-182    C    0.65585002    0.98918002    0.16666949    -0.07970000
opls_523-183    C    0.32252015    0.32251014    0.50000000    -0.07960000
opls_523-184    C    0.01081998    0.66666988    0.16666949    -0.07980000
opls_523-185    C    0.67747997    1.00000000    0.50000000    -0.07970000
opls_523-186    C    0.34415010    0.33333012    0.83333051    -0.07980000
opls_523-187    C    0.98917989    0.65584989    0.83333051    -0.07970000
opls_523-188    C    0.66667001    0.01081998    0.83333051    -0.07980000
opls_750-189    N    0.45669006    0.33506991    0.15067034    -0.30320000
opls_238-190    N    0.04024010    0.00035993    0.18406968    -0.35280000
opls_750-191    N    0.12335989    0.66840003    0.48399979    -0.30310000
opls_238-192    N    0.70690993    0.33369005    0.51740019    -0.35270000
opls_750-193    N    0.79002010    0.00174013    0.81733983    -0.30320000
opls_238-194    N    0.37357015    0.66703015    0.85074023    -0.35270000
opls_750-195    N    0.66492982    0.12161987    0.15067034    -0.30310000
opls_238-196    N    0.99964002    0.03987985    0.18406968    -0.35280000
opls_750-197    N    0.33159994    0.45494999    0.48399979    -0.30320000
opls_238-198    N    0.66630985    0.37320997    0.51740019    -0.35250000
opls_750-199    N    0.99826016    0.78829010    0.81733983    -0.30320000
opls_238-200    N    0.33297006    0.70655008    0.85074023    -0.35280000
opls_750-201    N    0.87837995    0.54330987    0.15067034    -0.30320000
opls_238-202    N    0.96012001    0.95975987    0.18406968    -0.35280000
opls_750-203    N    0.54505008    0.87664000    0.48399979    -0.30310000
opls_238-204    N    0.62679013    0.29308999    0.51740019    -0.35280000
opls_750-205    N    0.21171000    0.20998010    0.81733983    -0.30310000
opls_238-206    N    0.29345005    0.62643009    0.85074023    -0.35260000
opls_750-207    N    0.33507008    0.45669013    0.84932966    -0.30320000
opls_238-208    N    0.00036014    0.04024013    0.81593032    -0.35280000
opls_750-209    N    0.00174003    0.79001990    0.18266017    -0.30310000
opls_238-210    N    0.66703009    0.37356991    0.14925977    -0.35270000
opls_750-211    N    0.66839995    0.12336000    0.51600021    -0.30310000
opls_238-212    N    0.33369001    0.70691001    0.48259981    -0.35280000
opls_750-213    N    0.12162015    0.66493009    0.84932966    -0.30310000
opls_238-214    N    0.03988017    0.99964007    0.81593032    -0.35270000
opls_750-215    N    0.78828998    0.99826021    0.18266017    -0.30320000
opls_238-216    N    0.70654983    0.33296985    0.14925977    -0.35270000
opls_750-217    N    0.45495002    0.33159997    0.51600021    -0.30320000
opls_238-218    N    0.37321004    0.66630995    0.48259981    -0.35270000
opls_750-219    N    0.54330994    0.87838013    0.84932966    -0.30320000
opls_238-220    N    0.95976016    0.96012015    0.81593032    -0.35280000
opls_750-221    N    0.20997990    0.21170990    0.18266017    -0.30310000
opls_238-222    N    0.62642982    0.29344992    0.14925977    -0.35280000
opls_750-223    N    0.87664011    0.54505001    0.51600021    -0.30320000
opls_238-224    N    0.29309004    0.62679003    0.48259981    -0.35280000
opls_520-225    N    0.33333002    0.26242006    0.16666949    -0.24810000
opls_520-226    N    0.00000015    0.59575019    0.50000000    -0.24810000
opls_520-227    N    0.73758008    0.07091006    0.16666949    -0.24810000
opls_520-228    N    0.40425021    0.40424018    0.50000000    -0.25710000
opls_520-229    N    0.92908990    0.66666988    0.16666949    -0.25710000
opls_520-230    N    0.59574989    1.00000000    0.50000000    -0.24810000
opls_520-231    N    0.26242002    0.33333012    0.83333051    -0.24810000
opls_520-232    N    0.07090996    0.73757994    0.83333051    -0.24800000
opls_520-233    N    0.66667003    0.92908994    0.83333051    -0.25690000
opls_525-234    H    0.25782009    0.30209001    0.17291009    0.04870000
opls_144-235    H    0.25269998    0.18382997    0.15765011    0.03240000
opls_146-236    H    0.12716005    0.20084002    0.13189982    0.04870000
opls_526-237    H    0.05203009    0.12590017    0.13114053    0.04870000
opls_526-238    H    0.12492999    0.05264987    0.24347983    0.04870000
opls_146-239    H    0.19950018    0.12741010    0.24805994    0.04870000
opls_910-240    H    0.07409003    0.00044011    0.18422959    0.27620000
opls_525-241    H    0.92449021    0.63542014    0.50623954    0.04870000
opls_144-242    H    0.91937011    0.51716009    0.49097956    0.03240000
opls_146-243    H    0.79383017    0.53417015    0.46523033    0.04870000
opls_526-244    H    0.71870005    0.45922995    0.46446998    0.04870000
opls_526-245    H    0.79160011    0.38597999    0.57681034    0.04870000
opls_146-246    H    0.86616984    0.46073988    0.58139045    0.04870000
opls_910-247    H    0.74075998    0.33376989    0.51756010    0.27620000
opls_525-248    H    0.59114996    0.96875989    0.83957958    0.04870000
opls_144-249    H    0.58603003    0.85050019    0.82431960    0.03240000
opls_146-250    H    0.46048992    0.86750990    0.79857037    0.04870000
opls_526-251    H    0.38535997    0.79257005    0.79781002    0.04870000
opls_526-252    H    0.45826003    0.71932009    0.91015038    0.04870000
opls_146-253    H    0.53283005    0.79407998    0.91473049    0.04870000
opls_910-254    H    0.40741990    0.66710999    0.85090014    0.27610000
opls_525-255    H    0.69791016    0.95573008    0.17291009    0.04870000
opls_144-256    H    0.81617008    0.06886987    0.15765011    0.03240000
opls_146-257    H    0.79915981    0.92631991    0.13189982    0.04870000
opls_526-258    H    0.87410000    0.92612997    0.13114053    0.04870000
opls_526-259    H    0.94734991    0.07227993    0.24347983    0.04870000
opls_146-260    H    0.87258990    0.07208999    0.24805994    0.04870000
opls_910-261    H    0.99956020    0.07365015    0.18422959    0.27610000
opls_525-262    H    0.36457981    0.28905985    0.50623954    0.04870000
opls_144-263    H    0.48283991    0.40219999    0.49097956    0.03240000
opls_146-264    H    0.46582994    0.25965003    0.46523033    0.04870000
opls_526-265    H    0.54077013    0.25946009    0.46446998    0.04870000
opls_526-266    H    0.61402004    0.40561005    0.57681034    0.04870000
opls_146-267    H    0.53926002    0.40542011    0.58139045    0.04870000
opls_910-268    H    0.66622986    0.40697993    0.51756010    0.27620000
opls_525-269    H    0.03124003    0.62239996    0.83957958    0.04870000
opls_144-270    H    0.14950013    0.73554009    0.82431960    0.03240000
opls_146-271    H    0.13249016    0.59299013    0.79857037    0.04870000
opls_526-272    H    0.20743005    0.59280019    0.79781002    0.04870000
opls_526-273    H    0.28067996    0.73895015    0.91015038    0.04870000
opls_146-274    H    0.20592007    0.73875987    0.91473049    0.04870000
opls_910-275    H    0.33289007    0.74032003    0.85090014    0.27610000
opls_525-276    H    0.04427005    0.74217991    0.17291009    0.04870000
opls_144-277    H    0.93112994    0.74730017    0.15765011    0.03240000
opls_146-278    H    0.07368014    0.87284006    0.13189982    0.04870000
opls_526-279    H    0.07387007    0.94797020    0.13114053    0.04870000
opls_526-280    H    0.92772010    0.87507020    0.24347983    0.04870000
opls_146-281    H    0.92790992    0.80049991    0.24805994    0.04870000
opls_910-282    H    0.92634994    0.92591008    0.18422959    0.27610000
opls_525-283    H    0.71093988    0.07551003    0.50623954    0.04870000
opls_144-284    H    0.59779989    0.08062994    0.49097956    0.03240000
opls_146-285    H    0.74034980    0.20616984    0.46523033    0.04870000
opls_526-286    H    0.74054003    0.28129998    0.46446998    0.04870000
opls_526-287    H    0.59439005    0.20839997    0.57681034    0.04870000
opls_146-288    H    0.59458005    0.13383003    0.58139045    0.04870000
opls_910-289    H    0.59301990    0.25923986    0.51756010    0.27610000
opls_525-290    H    0.37760010    0.40885013    0.83957958    0.04880000
opls_144-291    H    0.26446011    0.41397004    0.82431960    0.03240000
opls_146-292    H    0.40701001    0.53950994    0.79857037    0.04870000
opls_526-293    H    0.40719995    0.61464008    0.79781002    0.04870000
opls_526-294    H    0.26104997    0.54174008    0.91015038    0.04870000
opls_146-295    H    0.26123997    0.46717014    0.91473049    0.04870000
opls_910-296    H    0.25968011    0.59257996    0.85090014    0.27610000
opls_525-297    H    0.30209015    0.25782009    0.82708991    0.04870000
opls_144-298    H    0.18382994    0.25270018    0.84234989    0.03240000
opls_146-299    H    0.20084008    0.12715994    0.86810018    0.04870000
opls_526-300    H    0.12590004    0.05203014    0.86885947    0.04870000
opls_526-301    H    0.05265007    0.12493015    0.75652017    0.04870000
opls_146-302    H    0.12741001    0.19950009    0.75194006    0.04870000
opls_910-303    H    0.00043986    0.07408992    0.81577041    0.27610000
opls_525-304    H    0.96875980    0.59114987    0.16042042    0.04870000
opls_144-305    H    0.85049990    0.58602996    0.17568040    0.03250000
opls_146-306    H    0.86750991    0.46049006    0.20142963    0.04870000
opls_526-307    H    0.79257000    0.38535992    0.20218998    0.04870000
opls_526-308    H    0.71932003    0.45825992    0.08984962    0.04870000
opls_146-309    H    0.79407997    0.53282986    0.08526951    0.04870000
opls_910-310    H    0.66710999    0.40742004    0.14909986    0.27610000
opls_525-311    H    0.63542002    0.92448997    0.49376046    0.04870000
opls_144-312    H    0.51716012    0.91937006    0.50902044    0.03240000
opls_146-313    H    0.53417012    0.79383016    0.53476967    0.04870000
opls_526-314    H    0.45922991    0.71870002    0.53553002    0.04870000
opls_526-315    H    0.38597995    0.79160003    0.42318966    0.04870000
opls_146-316    H    0.46073988    0.86616997    0.41860955    0.04870000
opls_910-317    H    0.33377020    0.74076014    0.48243990    0.27610000
opls_525-318    H    0.95573007    0.69790999    0.82708991    0.04870000
opls_144-319    H    0.06887001    0.81617003    0.84234989    0.03240000
opls_146-320    H    0.92632002    0.79915998    0.86810018    0.04870000
opls_526-321    H    0.92613009    0.87410017    0.86885947    0.04870000
opls_526-322    H    0.07228012    0.94735013    0.75652017    0.04870000
opls_146-323    H    0.07209008    0.87258990    0.75194006    0.04870000
opls_910-324    H    0.07364992    0.99955989    0.81577041    0.27610000
opls_525-325    H    0.62240020    0.03124011    0.16042042    0.04870000
opls_144-326    H    0.73554014    0.14950016    0.17568040    0.03240000
opls_146-327    H    0.59299015    0.13249010    0.20142963    0.04870000
opls_526-328    H    0.59280005    0.20742995    0.20218998    0.04880000
opls_526-329    H    0.73895007    0.28067991    0.08984962    0.04870000
opls_146-330    H    0.73875991    0.20592002    0.08526951    0.04870000
opls_910-331    H    0.74032005    0.33289001    0.14909986    0.27610000
opls_525-332    H    0.28905995    0.36457986    0.49376046    0.04870000
opls_144-333    H    0.40219989    0.48283991    0.50902044    0.03240000
opls_146-334    H    0.25964990    0.46582985    0.53476967    0.04870000
opls_526-335    H    0.25945997    0.54077005    0.53553002    0.04870000
opls_526-336    H    0.40560999    0.61402001    0.42318966    0.04870000
opls_146-337    H    0.40542012    0.53926012    0.41860955    0.04870000
opls_910-338    H    0.40697997    0.66623011    0.48243990    0.27620000
opls_525-339    H    0.74218008    0.04426992    0.82708991    0.04880000
opls_144-340    H    0.74730021    0.93113013    0.84234989    0.03240000
opls_146-341    H    0.87283990    0.07368009    0.86810018    0.04870000
opls_526-342    H    0.94797004    0.07387003    0.86885947    0.04870000
opls_526-343    H    0.87506998    0.92772007    0.75652017    0.04870000
opls_146-344    H    0.80049991    0.92791001    0.75194006    0.04870000
opls_910-345    H    0.92591022    0.92635019    0.81577041    0.27610000
opls_525-346    H    0.40884991    0.37760004    0.16042042    0.04870000
opls_144-347    H    0.41396987    0.26445991    0.17568040    0.03240000
opls_146-348    H    0.53950986    0.40700987    0.20142963    0.04870000
opls_526-349    H    0.61464016    0.40720016    0.20218998    0.04870000
opls_526-350    H    0.54173994    0.26104985    0.08984962    0.04870000
opls_146-351    H    0.46717004    0.26124013    0.08526951    0.04870000
opls_910-352    H    0.59257988    0.25967997    0.14909986    0.27620000
opls_525-353    H    0.07551012    0.71094015    0.49376046    0.04870000
opls_144-354    H    0.08063009    0.59780001    0.50902044    0.03240000
opls_146-355    H    0.20617007    0.74034997    0.53476967    0.04870000
opls_526-356    H    0.28129991    0.74053991    0.53553002    0.04870000
opls_526-357    H    0.20839986    0.59438995    0.42318966    0.04870000
opls_146-358    H    0.13383008    0.59457989    0.41860955    0.04870000
opls_910-359    H    0.25924009    0.59302007    0.48243990    0.27610000
opls_526-360    H    0.33332990    0.37629004    0.16666949    0.13130000
opls_526-361    H    0.00000003    0.70962017    0.50000000    0.13120000
opls_526-362    H    0.62370999    0.95704008    0.16666949    0.13120000
opls_526-363    H    0.29036981    0.29036986    0.50000000    0.13630000
opls_526-364    H    0.04295981    0.66666988    0.16666949    0.13130000
opls_526-365    H    0.70962011    1.00000000    0.50000000    0.13120000
opls_526-366    H    0.37628994    0.33333012    0.83333051    0.13120000
opls_526-367    H    0.95703986    0.62370996    0.83333051    0.13120000
opls_526-368    H    0.66666991    0.04295992    0.83333051    0.13120000
