#======================================================================
# Crystal Data Generated By AuToFF
#----------------------------------------------------------------------

data_AuToFF_phase_1

_cell_length_a                         41.8503
_cell_length_b                         41.8503
_cell_length_c                         3.4997
_cell_angle_alpha                      90.00
_cell_angle_beta                       90.00
_cell_angle_gamma                      120.00
_symmetry_space_group_name_H-M_alt     'P 1'
_symmetry_space_group_IT_number        1

loop_
_space_group_symop_operation_xyz
   'x, y, z'

loop_
   _atom_site_label
   _atom_site_type_symbol
   _atom_site_fract_x
   _atom_site_fract_y
   _atom_site_fract_z
   _atom_site_charge
opls_145-0    C    0.96350010    0.48434005    0.34126068    -0.10770000
opls_166-1    C    0.97826009    0.46310006    0.34780981    0.16930000
opls_145-2    C    0.01414994    0.47827992    0.33558019    -0.25030000
opls_234-3    C    0.92589012    0.47042001    0.37590936    0.30920000
opls_142-4    C    0.84917005    0.39865002    0.74154070    0.01580000
opls_145-5    C    0.81204002    0.38577016    0.75371889    0.00700000
opls_145-6    C    0.79822989    0.40559997    0.61873875    -0.23040000
opls_145-7    C    0.76293988    0.39273998    0.62517930    -0.23000000
opls_145-8    C    0.74045999    0.36003004    0.77682944    0.02890000
opls_145-9    C    0.75476015    0.34059010    0.91787868    -0.23010000
opls_145-10    C    0.79002010    0.35316010    0.90144012    -0.23040000
opls_145-11    C    0.70252996    0.34631003    0.78499871    0.02800000
opls_145-12    C    0.68917998    0.36862001    0.78613881    -0.15830000
opls_145-13    C    0.03544004    0.51391011    0.31188959    -0.10920000
opls_166-14    C    0.02069006    0.53490013    0.26990885    0.16930000
opls_145-15    C    0.98481995    0.51984002    0.29431094    -0.25020000
opls_234-16    C    0.07313000    0.52834997    0.31733863    0.31980000
opls_142-17    C    0.15090007    0.60199010    0.63227991    0.01580000
opls_145-18    C    0.18803990    0.61486995    0.63554876    0.00700000
opls_145-19    C    0.20159997    0.59490992    0.49771980    -0.23040000
opls_145-20    C    0.23686995    0.60766009    0.49893991    -0.23000000
opls_145-21    C    0.25961005    0.64040011    0.64838986    0.02890000
opls_145-22    C    0.24556996    0.66001994    0.79119925    -0.23010000
opls_145-23    C    0.21031989    0.64756003    0.77972112    -0.23040000
opls_145-24    C    0.29751004    0.65389994    0.65373889    0.02800000
opls_145-25    C    0.31065006    0.63141999    0.65455896    -0.15840000
opls_182-26    C    0.02819993    0.58964000    0.04410092    0.03260000
opls_182-27    C    0.96879006    0.40662002    0.51558134    0.03260000
opls_142-28    C    0.05669989    0.62340999    0.90558048    -0.18270000
opls_143-29    C    0.05148997    0.64947017    0.82985970    -0.31830000
opls_142-30    C    0.93847998    0.37371004    0.64682116    -0.18220000
opls_143-31    C    0.93460007    0.34315994    0.55799926    -0.31700000
opls_145-32    C    0.51566002    0.47916008    0.34126068    -0.10770000
opls_166-33    C    0.53690010    0.51515999    0.34780981    0.16930000
opls_145-34    C    0.52172002    0.53586996    0.33558019    -0.25030000
opls_234-35    C    0.52957990    0.45546999    0.37590936    0.30920000
opls_142-36    C    0.60135008    0.45052012    0.74154070    0.01580000
opls_145-37    C    0.61423006    0.42626993    0.75371889    0.00700000
opls_145-38    C    0.59440016    0.39263017    0.61873875    -0.23040000
opls_145-39    C    0.60726002    0.37020016    0.62517930    -0.23000000
opls_145-40    C    0.63997004    0.38043016    0.77682944    0.02890000
opls_145-41    C    0.65941011    0.41417008    0.91787868    -0.23010000
opls_145-42    C    0.64684006    0.43685999    0.90144012    -0.23040000
opls_145-43    C    0.65369009    0.35621997    0.78499871    0.02800000
opls_145-44    C    0.63138008    0.32055998    0.78613881    -0.15830000
opls_145-45    C    0.48609002    0.52152998    0.31188959    -0.10920000
opls_166-46    C    0.46510008    0.48578997    0.26990885    0.16930000
opls_145-47    C    0.48015997    0.46498013    0.29431094    -0.25020000
opls_234-48    C    0.47164998    0.54477999    0.31733863    0.31980000
opls_142-49    C    0.39800997    0.54891012    0.63227991    0.01580000
opls_145-50    C    0.38513004    0.57316997    0.63554876    0.00700000
opls_145-51    C    0.40509002    0.60668999    0.49771980    -0.23040000
opls_145-52    C    0.39233989    0.62920994    0.49893991    -0.23000000
opls_145-53    C    0.35960013    0.61921005    0.64838986    0.02890000
opls_145-54    C    0.33997999    0.58555015    0.79119925    -0.23010000
opls_145-55    C    0.35243999    0.56276008    0.77972112    -0.23040000
opls_145-56    C    0.34609996    0.64361007    0.65373889    0.02800000
opls_145-57    C    0.36857993    0.67923005    0.65455896    -0.15840000
opls_182-58    C    0.41036019    0.43856016    0.04410092    0.03260000
opls_182-59    C    0.59338010    0.56217018    0.51558134    0.03260000
opls_142-60    C    0.37659007    0.43328996    0.90558048    -0.18270000
opls_143-61    C    0.35053008    0.40202001    0.82985970    -0.31830000
opls_142-62    C    0.62629011    0.56477010    0.64682116    -0.18220000
opls_143-63    C    0.65684002    0.59144005    0.55799926    -0.31700000
opls_145-64    C    0.52083988    0.03649987    0.34126068    -0.10770000
opls_166-65    C    0.48484005    0.02173995    0.34780981    0.16930000
opls_145-66    C    0.46413005    0.98585012    0.33558019    -0.25030000
opls_234-67    C    0.54452998    0.07411000    0.37590936    0.30920000
opls_142-68    C    0.54948001    0.15083014    0.74154070    0.01580000
opls_145-69    C    0.57372992    0.18795991    0.75371889    0.00700000
opls_145-70    C    0.60737009    0.20177014    0.61873875    -0.23040000
opls_145-71    C    0.62980000    0.23706013    0.62517930    -0.23000000
opls_145-72    C    0.61957011    0.25954008    0.77682944    0.02890000
opls_145-73    C    0.58583011    0.24524010    0.91787868    -0.23010000
opls_145-74    C    0.56313984    0.20997991    0.90144012    -0.23040000
opls_145-75    C    0.64377996    0.29747000    0.78499871    0.02800000
opls_145-76    C    0.67943994    0.31082001    0.78613881    -0.15830000
opls_145-77    C    0.47847009    0.96456019    0.31188959    -0.10920000
opls_166-78    C    0.51420999    0.97931018    0.26990885    0.16930000
opls_145-79    C    0.53501998    0.01518013    0.29431094    -0.25020000
opls_234-80    C    0.45522002    0.92687004    0.31733863    0.31980000
opls_142-81    C    0.45109010    0.84910006    0.63227991    0.01580000
opls_145-82    C    0.42683007    0.81196007    0.63554876    0.00700000
opls_145-83    C    0.39331001    0.79840010    0.49771980    -0.23040000
opls_145-84    C    0.37078991    0.76312997    0.49893991    -0.23000000
opls_145-85    C    0.38078996    0.74039012    0.64838986    0.02890000
opls_145-86    C    0.41445019    0.75443018    0.79119925    -0.23010000
opls_145-87    C    0.43724002    0.78968017    0.77972112    -0.23040000
opls_145-88    C    0.35639000    0.70249000    0.65373889    0.02800000
opls_145-89    C    0.32077001    0.68934996    0.65455896    -0.15840000
opls_182-90    C    0.56144002    0.97180012    0.04410092    0.03260000
opls_182-91    C    0.43782997    0.03121008    0.51558134    0.03260000
opls_142-92    C    0.56671004    0.94330005    0.90558048    -0.18270000
opls_143-93    C    0.59798009    0.94851010    0.82985970    -0.31830000
opls_142-94    C    0.43523005    0.06152013    0.64682116    -0.18210000
opls_143-95    C    0.40855991    0.06540001    0.55799926    -0.31700000
opls_236-96    O    0.91322988    0.48623999    0.23358859    -0.44350000
opls_179-97    O    0.95676007    0.42722017    0.33842901    -0.20990000
opls_236-98    O    0.08523007    0.51191002    0.17844101    -0.44300000
opls_179-99    O    0.04249012    0.57016005    0.19765123    -0.20630000
opls_236-100    O    0.51376002    0.42699006    0.23358859    -0.44360000
opls_179-101    O    0.57277997    0.52953998    0.33842901    -0.20990000
opls_236-102    O    0.48809013    0.57332007    0.17844101    -0.44300000
opls_179-103    O    0.42984015    0.47233015    0.19765123    -0.20630000
opls_236-104    O    0.57301009    0.08676996    0.23358859    -0.44360000
opls_179-105    O    0.47046009    0.04324012    0.33842901    -0.20990000
opls_236-106    O    0.42668017    0.91477018    0.17844101    -0.44300000
opls_179-107    O    0.52767010    0.95751008    0.19765123    -0.20620000
opls_238-108    N    0.90524004    0.44076994    0.56930880    -0.26190000
opls_750-109    N    0.86975010    0.42777006    0.58270137    -0.05940000
opls_238-110    N    0.09440996    0.55922013    0.48523873    -0.26200000
opls_750-111    N    0.12992010    0.57232016    0.48723891    -0.05790000
opls_238-112    N    0.55923001    0.46446996    0.56930880    -0.26200000
opls_750-113    N    0.57223006    0.44198009    0.58270137    -0.05940000
opls_238-114    N    0.44077996    0.53519011    0.48523873    -0.26200000
opls_750-115    N    0.42767992    0.55759997    0.48723891    -0.05790000
opls_238-116    N    0.53552995    0.09476010    0.56930880    -0.26200000
opls_750-117    N    0.55801998    0.13025013    0.58270137    -0.05940000
opls_238-118    N    0.46480999    0.90559004    0.48523873    -0.26200000
opls_750-119    N    0.44240011    0.87008014    0.48723891    -0.05790000
opls_910-120    H    0.91567992    0.42860001    0.72663085    0.23550000
opls_144-121    H    0.85922992    0.38341994    0.86483127    0.10460000
opls_146-122    H    0.81462006    0.43078992    0.49949138    0.21370000
opls_146-123    H    0.75357991    0.40831991    0.49827128    0.21370000
opls_146-124    H    0.73912013    0.31599005    0.05175015    0.21380000
opls_146-125    H    0.80020003    0.33760004    0.01142098    0.21380000
opls_146-126    H    0.70654007    0.39584013    0.78591879    0.21380000
opls_910-127    H    0.08431997    0.57238997    0.63033974    0.23550000
opls_144-128    H    0.14113008    0.61753996    0.75339886    0.10450000
opls_146-129    H    0.18500997    0.56966009    0.38076121    0.21370000
opls_146-130    H    0.24602009    0.59196014    0.37054033    0.21380000
opls_146-131    H    0.26141995    0.68466000    0.92337915    0.21370000
opls_146-132    H    0.20035008    0.66323018    0.89181930    0.21370000
opls_146-133    H    0.29315996    0.60422995    0.65459039    0.21380000
opls_146-134    H    0.02578014    0.46232006    0.34074063    0.21280000
opls_146-135    H    0.97319994    0.53577008    0.28178987    0.21290000
opls_185-136    H    0.01299004    0.59434016    0.25669915    0.09560000
opls_185-137    H    0.01064989    0.57538996    0.81016944    0.09510000
opls_185-138    H    0.98521006    0.42022000    0.76015087    0.08190000
opls_185-139    H    0.98484014    0.40143011    0.31897020    0.09580000
opls_144-140    H    0.08174995    0.62635011    0.85051004    0.21350000
opls_144-141    H    0.02653998    0.64710008    0.87324056    0.14720000
opls_144-142    H    0.07232005    0.67343010    0.72205903    0.14750000
opls_144-143    H    0.91908006    0.37478996    0.81947881    0.21350000
opls_144-144    H    0.91230004    0.31994994    0.65807926    0.14750000
opls_144-145    H    0.95349995    0.34097003    0.38769895    0.14720000
opls_910-146    H    0.57140008    0.48708014    0.72663085    0.23540000
opls_144-147    H    0.61657992    0.47580995    0.86483127    0.10460000
opls_146-148    H    0.56921000    0.38382995    0.49949138    0.21370000
opls_146-149    H    0.59168000    0.34525991    0.49827128    0.21370000
opls_146-150    H    0.68400990    0.42313005    0.05175015    0.21380000
opls_146-151    H    0.66239995    0.46260011    0.01142098    0.21370000
opls_146-152    H    0.60415992    0.31069998    0.78591879    0.21380000
opls_910-153    H    0.42760997    0.51193017    0.63033974    0.23540000
opls_144-154    H    0.38246005    0.52358994    0.75339886    0.10450000
opls_146-155    H    0.43034009    0.61535004    0.38076121    0.21360000
opls_146-156    H    0.40803992    0.65405996    0.37054033    0.21380000
opls_146-157    H    0.31533997    0.57676014    0.92337915    0.21370000
opls_146-158    H    0.33677008    0.53712012    0.89181930    0.21370000
opls_146-159    H    0.39577002    0.68893002    0.65459039    0.21380000
opls_146-160    H    0.53767993    0.56346007    0.34074063    0.21280000
opls_146-161    H    0.46423010    0.43743002    0.28178987    0.21290000
opls_185-162    H    0.40566006    0.41865006    0.25669915    0.09560000
opls_185-163    H    0.42461010    0.43525997    0.81016944    0.09510000
opls_185-164    H    0.57978009    0.56499000    0.76015087    0.08190000
opls_185-165    H    0.59857003    0.58341017    0.31897020    0.09580000
opls_144-166    H    0.37364992    0.45539990    0.85051004    0.21350000
opls_144-167    H    0.35289991    0.37943991    0.87324056    0.14710000
opls_144-168    H    0.32657004    0.39889006    0.72205903    0.14750000
opls_144-169    H    0.62521008    0.54428997    0.81947881    0.21350000
opls_144-170    H    0.68004991    0.59235000    0.65807926    0.14750000
opls_144-171    H    0.65902995    0.61252994    0.38769895    0.14720000
opls_910-172    H    0.51292013    0.08432013    0.72663085    0.23540000
opls_144-173    H    0.52419016    0.14077010    0.86483127    0.10460000
opls_146-174    H    0.61617018    0.18538013    0.49949138    0.21370000
opls_146-175    H    0.65473995    0.24641990    0.49827128    0.21370000
opls_146-176    H    0.57686997    0.26087991    0.05175015    0.21390000
opls_146-177    H    0.53740015    0.19980013    0.01142098    0.21380000
opls_146-178    H    0.68930001    0.29345989    0.78591879    0.21380000
opls_910-179    H    0.48806996    0.91568014    0.63033974    0.23540000
opls_144-180    H    0.47641010    0.85887011    0.75339886    0.10450000
opls_146-181    H    0.38465007    0.81499014    0.38076121    0.21360000
opls_146-182    H    0.34594013    0.75398017    0.37054033    0.21380000
opls_146-183    H    0.42323998    0.73858013    0.92337915    0.21370000
opls_146-184    H    0.46287997    0.79964998    0.89181930    0.21370000
opls_146-185    H    0.31107002    0.70684003    0.65459039    0.21380000
opls_146-186    H    0.43654007    0.97422015    0.34074063    0.21280000
opls_146-187    H    0.56256997    0.02679990    0.28178987    0.21290000
opls_185-188    H    0.58135004    0.98701006    0.25669915    0.09560000
opls_185-189    H    0.56474000    0.98935007    0.81016944    0.09520000
opls_185-190    H    0.43501009    0.01478999    0.76015087    0.08190000
opls_185-191    H    0.41658997    0.01515999    0.31897020    0.09580000
opls_144-192    H    0.54459989    0.91824999    0.85051004    0.21350000
opls_144-193    H    0.62056011    0.97346001    0.87324056    0.14710000
opls_144-194    H    0.60111004    0.92768011    0.72205903    0.14750000
opls_144-195    H    0.45571010    0.08092007    0.81947881    0.21350000
opls_144-196    H    0.40765005    0.08770006    0.65807926    0.14750000
opls_144-197    H    0.38747010    0.04650003    0.38769895    0.14720000
