#======================================================================
# Crystal Data Generated By AuToFF
#----------------------------------------------------------------------

data_AuToFF_phase_1

_cell_length_a                         27.2870
_cell_length_b                         27.2870
_cell_length_c                         3.2900
_cell_angle_alpha                      90.00
_cell_angle_beta                       90.00
_cell_angle_gamma                      120.00
_symmetry_space_group_name_H-M_alt     'P 1'
_symmetry_space_group_IT_number        1

loop_
_space_group_symop_operation_xyz
   'x, y, z'

loop_
   _atom_site_label
   _atom_site_type_symbol
   _atom_site_fract_x
   _atom_site_fract_y
   _atom_site_fract_z
   _atom_site_charge
opls_280-0    C    0.29569008    0.68881997    0.00000000    0.30490000
opls_166-1    C    0.40347976    0.62143967    0.00000000    0.47110000
opls_567-2    C    0.41666988    0.54899997    0.00000000    0.40420000
opls_522-3    C    0.47459001    0.58192968    0.00000000    -0.10780000
opls_166-4    C    0.49483995    0.63758990    0.00000000    0.48970000
opls_142-5    C    0.56249973    0.72817973    0.00000000    0.13430000
opls_142-6    C    0.61277980    0.77089988    0.00000000    -0.18590000
opls_523-7    C    0.49687992    0.54654982    0.00000000    -0.01280000
opls_567-8    C    0.44733002    0.49122983    0.00000000    0.24250000
opls_145-9    C    0.45132016    0.44559998    0.00000000    -0.19790000
opls_522-10    C    0.27480974    0.62979979    0.00000000    -0.11800000
opls_142-11    C    0.64649980    0.82450984    0.00000000    -0.11120000
opls_143-12    C    0.69995977    0.85891980    0.00000000    -0.31020000
opls_280-13    C    0.31118007    0.60686997    0.00000000    0.30490000
opls_166-14    C    0.37855975    0.78203979    0.00000000    0.47110000
opls_567-15    C    0.45099978    0.86766966    0.00000000    0.40420000
opls_522-16    C    0.41806997    0.89265989    0.00000000    -0.10780000
opls_166-17    C    0.36240994    0.85724998    0.00000000    0.48970000
opls_142-18    C    0.27181996    0.83431974    0.00000000    0.13430000
opls_142-19    C    0.22909975    0.84187965    0.00000000    -0.18590000
opls_523-20    C    0.45344976    0.95032973    0.00000000    -0.01280000
opls_567-21    C    0.50876994    0.95609964    0.00000000    0.24250000
opls_145-22    C    0.55439991    0.00571997    0.00000000    -0.19790000
opls_522-23    C    0.37019974    0.64500974    0.00000000    -0.11800000
opls_142-24    C    0.17549012    0.82198987    0.00000000    -0.11120000
opls_143-25    C    0.14107980    0.84103966    0.00000000    -0.31020000
opls_280-26    C    0.39312985    0.70431006    0.00000000    0.30490000
opls_166-27    C    0.21795970    0.59651969    0.00000000    0.47110000
opls_567-28    C    0.13233013    0.58332995    0.00000000    0.40420000
opls_522-29    C    0.10734018    0.52541001    0.00000000    -0.10780000
opls_166-30    C    0.14274989    0.50515970    0.00000000    0.48970000
opls_142-31    C    0.16568009    0.43750011    0.00000000    0.13430000
opls_142-32    C    0.15811987    0.38722005    0.00000000    -0.18590000
opls_523-33    C    0.04967010    0.50312002    0.00000000    -0.01280000
opls_567-34    C    0.04389998    0.55266969    0.00000000    0.24250000
opls_145-35    C    0.99427992    0.54868005    0.00000000    -0.19790000
opls_522-36    C    0.35498994    0.72519005    0.00000000    -0.11800000
opls_142-37    C    0.17800987    0.35349986    0.00000000    -0.11120000
opls_143-38    C    0.15896021    0.30004012    0.00000000    -0.31020000
opls_280-39    C    0.70430992    0.31118003    0.00000000    0.30490000
opls_166-40    C    0.59652003    0.37855991    0.00000000    0.47110000
opls_567-41    C    0.58333012    0.45100003    0.00000000    0.40420000
opls_522-42    C    0.52540978    0.41806989    0.00000000    -0.10780000
opls_166-43    C    0.50516005    0.36241010    0.00000000    0.48970000
opls_142-44    C    0.43750006    0.27181985    0.00000000    0.13430000
opls_142-45    C    0.38722020    0.22910012    0.00000000    -0.18590000
opls_523-46    C    0.50311986    0.45344976    0.00000000    -0.01280000
opls_567-47    C    0.55266977    0.50876975    0.00000000    0.24250000
opls_145-48    C    0.54867984    0.55440002    0.00000000    -0.19790000
opls_522-49    C    0.72519005    0.37019979    0.00000000    -0.11800000
opls_142-50    C    0.35350020    0.17549016    0.00000000    -0.11120000
opls_143-51    C    0.30004002    0.14107977    0.00000000    -0.31020000
opls_280-52    C    0.68881993    0.39313003    0.00000000    0.30490000
opls_166-53    C    0.62144004    0.21795979    0.00000000    0.47110000
opls_567-54    C    0.54900001    0.13232992    0.00000000    0.40420000
opls_522-55    C    0.58193003    0.10734011    0.00000000    -0.10780000
opls_166-56    C    0.63759006    0.14275002    0.00000000    0.48970000
opls_142-57    C    0.72817982    0.16567984    0.00000000    0.13430000
opls_142-58    C    0.77090004    0.15811993    0.00000000    -0.18590000
opls_523-59    C    0.54655002    0.04966984    0.00000000    -0.01280000
opls_567-60    C    0.49122985    0.04389994    0.00000000    0.24250000
opls_145-61    C    0.44559988    0.99427961    0.00000000    -0.19790000
opls_522-62    C    0.62980004    0.35498984    0.00000000    -0.11800000
opls_142-63    C    0.82450988    0.17801013    0.00000000    -0.11120000
opls_143-64    C    0.85891999    0.15895992    0.00000000    -0.31020000
opls_280-65    C    0.60687015    0.29568994    0.00000000    0.30490000
opls_166-66    C    0.78204009    0.40347989    0.00000000    0.47110000
opls_567-67    C    0.86766987    0.41667005    0.00000000    0.40420000
opls_522-68    C    0.89265982    0.47458999    0.00000000    -0.10780000
opls_166-69    C    0.85724990    0.49483988    0.00000000    0.48970000
opls_142-70    C    0.83431991    0.56249989    0.00000000    0.13430000
opls_142-71    C    0.84188013    0.61277995    0.00000000    -0.18590000
opls_523-72    C    0.95032990    0.49687998    0.00000000    -0.01280000
opls_567-73    C    0.95609980    0.44732989    0.00000000    0.24250000
opls_145-74    C    0.00572008    0.45131995    0.00000000    -0.19790000
opls_522-75    C    0.64501006    0.27480995    0.00000000    -0.11800000
opls_142-76    C    0.82198992    0.64649972    0.00000000    -0.11120000
opls_143-77    C    0.84103979    0.69995988    0.00000000    -0.31020000
opls_520-78    N    0.38221987    0.56720003    0.00000000    -0.25100000
opls_520-79    N    0.43280000    0.81501986    0.00000000    -0.25100000
opls_520-80    N    0.18497992    0.61777968    0.00000000    -0.25100000
opls_520-81    N    0.61778013    0.43279997    0.00000000    -0.25100000
opls_520-82    N    0.56720000    0.18498014    0.00000000    -0.25100000
opls_520-83    N    0.81501987    0.38221989    0.00000000    -0.25100000
opls_180-84    O    0.46043997    0.65697991    0.00000000    -0.30670000
opls_180-85    O    0.54799012    0.67429005    0.00000000    -0.27050000
opls_566-86    O    0.40032995    0.49545009    0.00000000    -0.21950000
opls_281-87    O    0.29276009    0.55661997    0.00000000    -0.32220000
opls_180-88    O    0.34301986    0.80345974    0.00000000    -0.30670000
opls_180-89    O    0.32570980    0.87369981    0.00000000    -0.27050000
opls_566-90    O    0.50455003    0.90487973    0.00000000    -0.21950000
opls_281-91    O    0.44337983    0.73613996    0.00000000    -0.32220000
opls_180-92    O    0.19653996    0.53955992    0.00000000    -0.30670000
opls_180-93    O    0.12629987    0.45200971    0.00000000    -0.27050000
opls_566-94    O    0.09511981    0.59966976    0.00000000    -0.21950000
opls_281-95    O    0.26385987    0.70723965    0.00000000    -0.32220000
opls_180-96    O    0.53956003    0.34302009    0.00000000    -0.30670000
opls_180-97    O    0.45200988    0.32570995    0.00000000    -0.27050000
opls_566-98    O    0.59967005    0.50454991    0.00000000    -0.21950000
opls_281-99    O    0.70723991    0.44338003    0.00000000    -0.32220000
opls_180-100    O    0.65697993    0.19653983    0.00000000    -0.30670000
opls_180-101    O    0.67428998    0.12629976    0.00000000    -0.27050000
opls_566-102    O    0.49544976    0.09511985    0.00000000    -0.21950000
opls_281-103    O    0.55662017    0.26386004    0.00000000    -0.32220000
opls_180-104    O    0.80346004    0.46044008    0.00000000    -0.30670000
opls_180-105    O    0.87369992    0.54798986    0.00000000    -0.27050000
opls_566-106    O    0.90487997    0.40032982    0.00000000    -0.21950000
opls_281-107    O    0.73613992    0.29275992    0.00000000    -0.32220000
opls_185-108    H    0.52843973    0.74072964    0.00000000    0.02440000
opls_144-109    H    0.65078978    0.76416980    0.00000000    0.04520000
opls_146-110    H    0.41139994    0.40219007    0.00000000    0.04520000
opls_144-111    H    0.62879977    0.85451970    0.00000000    0.04520000
opls_144-112    H    0.72862008    0.85126003    0.78924924    0.10350000
opls_144-113    H    0.71889002    0.89720980    0.21075076    0.10350000
opls_185-114    H    0.25926995    0.78770983    0.00000000    0.02440000
opls_144-115    H    0.23582993    0.88660984    0.00000000    0.04520000
opls_146-116    H    0.59780974    0.00920984    0.00000000    0.04520000
opls_144-117    H    0.14547973    0.77427972    0.00000000    0.04520000
opls_144-118    H    0.09851993    0.81649968    0.83913982    0.10350000
opls_144-119    H    0.15300993    0.88253981    0.16086018    0.10350000
opls_185-120    H    0.21229011    0.47156010    0.00000000    0.02440000
opls_144-121    H    0.11339002    0.34920977    0.00000000    0.04520000
opls_146-122    H    0.99078995    0.58860009    0.00000000    0.04520000
opls_144-123    H    0.22571970    0.37119973    0.00000000    0.04520000
opls_144-124    H    0.18738000    0.28268978    0.90048024    0.10350000
opls_144-125    H    0.11358004    0.26978991    0.09951976    0.10350000
opls_185-126    H    0.47156006    0.25926993    0.00000000    0.02440000
opls_144-127    H    0.34921001    0.23582977    0.00000000    0.04520000
opls_146-128    H    0.58860006    0.59780993    0.00000000    0.04520000
opls_144-129    H    0.37120001    0.14547988    0.00000000    0.04520000
opls_144-130    H    0.28110977    0.10278978    0.78924924    0.10350000
opls_144-131    H    0.27137992    0.14873997    0.21075076    0.10350000
opls_185-132    H    0.74072984    0.21228975    0.00000000    0.02440000
opls_144-133    H    0.76417007    0.11339016    0.00000000    0.04520000
opls_146-134    H    0.40219004    0.99078973    0.00000000    0.04520000
opls_144-135    H    0.85452006    0.22571985    0.00000000    0.04520000
opls_144-136    H    0.84698986    0.11745977    0.83913982    0.10350000
opls_144-137    H    0.90147985    0.18349989    0.16086018    0.10350000
opls_185-138    H    0.78770989    0.52843990    0.00000000    0.02440000
opls_144-139    H    0.88660977    0.65078980    0.00000000    0.04520000
opls_146-140    H    0.00921005    0.41139991    0.00000000    0.04520000
opls_144-141    H    0.77428008    0.62879984    0.00000000    0.04520000
opls_144-142    H    0.88641975    0.73020967    0.90048024    0.10350000
opls_144-143    H    0.81261979    0.71730980    0.09951976    0.10350000
