#======================================================================
# Crystal Data Generated By AuToFF
#----------------------------------------------------------------------

data_AuToFF_phase_1

_cell_length_a                         37.4089
_cell_length_b                         37.4089
_cell_length_c                         5.0118
_cell_angle_alpha                      90.00
_cell_angle_beta                       90.00
_cell_angle_gamma                      120.00
_symmetry_space_group_name_H-M_alt     'P 1'
_symmetry_space_group_IT_number        1

loop_
_space_group_symop_operation_xyz
   'x, y, z'

loop_
   _atom_site_label
   _atom_site_type_symbol
   _atom_site_fract_x
   _atom_site_fract_y
   _atom_site_fract_z
   _atom_site_charge
opls_145-0    C    0.31667000    0.13620001    0.63429905    -0.17350000
opls_145-1    C    0.35992012    0.16060007    0.66488088    -0.13120000
opls_700-2    C    0.37691000    0.19311012    0.85130093    -0.00210000
opls_624-3    C    0.34954988    0.19956996    0.00467098    0.10390000
opls_624-4    C    0.30769002    0.17566008    0.97993934    0.08420000
opls_700-5    C    0.28944994    0.14343987    0.79236003    0.00320000
opls_700-6    C    0.24389987    0.11839994    0.75419011    0.06940000
opls_700-7    C    0.42185010    0.21923008    0.88334930    0.06980000
opls_145-8    C    0.21890002    0.13662999    0.76808931    -0.12800000
opls_145-9    C    0.17621019    0.11302013    0.72855062    -0.17540000
opls_916-10    C    0.15750992    0.07056998    0.66929047    0.17800000
opls_145-11    C    0.18253987    0.05248995    0.65265972    -0.17210000
opls_145-12    C    0.22511981    0.07596986    0.69623090    -0.12960000
opls_145-13    C    0.44367009    0.20606006    0.04491999    -0.12760000
opls_145-14    C    0.48633997    0.23117993    0.07899956    -0.18020000
opls_916-15    C    0.50791003    0.26950995    0.94671974    0.18030000
opls_145-16    C    0.48566994    0.28265991    0.78783072    -0.17490000
opls_145-17    C    0.44293007    0.25781012    0.75740053    -0.12070000
opls_627-18    C    0.31827002    0.22230011    0.27560956    0.27960000
opls_137-19    C    0.31079988    0.24860990    0.46938026    0.07250000
opls_907-20    C    0.34572005    0.31952004    0.58057983    -0.03180000
opls_136-21    C    0.30235000    0.30761989    0.48946087    -0.19180000
opls_136-22    C    0.28767007    0.26781010    0.33811006    -0.20720000
opls_142-23    C    0.08364997    0.05714006    0.68885031    0.04870000
opls_142-24    C    0.57889999    0.28071992    0.05505008    0.04390000
opls_145-25    C    0.04358991    0.02966998    0.74272916    -0.22740000
opls_145-26    C    0.61897998    0.30582991    0.12086077    -0.04990000
opls_280-27    C    0.01378012    0.04462998    0.77520053    0.32870000
opls_280-28    C    0.64636999    0.28804003    0.15524961    0.16630000
opls_145-29    C    0.86380015    0.18047008    0.63429905    -0.17350000
opls_145-30    C    0.83939998    0.19931994    0.66488088    -0.13120000
opls_700-31    C    0.80689002    0.18380001    0.85130093    -0.00210000
opls_624-32    C    0.80042992    0.14997997    0.00467098    0.10390000
opls_624-33    C    0.82433983    0.13202988    0.97993934    0.08420000
opls_700-34    C    0.85655991    0.14600985    0.79236003    0.00320000
opls_700-35    C    0.88160004    0.12549997    0.75419011    0.06940000
opls_700-36    C    0.78076993    0.20261993    0.88334930    0.06970000
opls_145-37    C    0.86337014    0.08227012    0.76808931    -0.12800000
opls_145-38    C    0.88697995    0.06318999    0.72855062    -0.17540000
opls_916-39    C    0.92943002    0.08693999    0.66929047    0.17800000
opls_145-40    C    0.94750995    0.13005007    0.65265972    -0.17210000
opls_145-41    C    0.92403005    0.14914995    0.69623090    -0.12960000
opls_145-42    C    0.79393998    0.23760983    0.04491999    -0.12760000
opls_145-43    C    0.76881986    0.25515988    0.07899956    -0.18020000
opls_916-44    C    0.73049011    0.23840003    0.94671974    0.18030000
opls_145-45    C    0.71734005    0.20301009    0.78783072    -0.17500000
opls_145-46    C    0.74218984    0.18511988    0.75740053    -0.12070000
opls_627-47    C    0.77770019    0.09597013    0.27560956    0.27960000
opls_137-48    C    0.75138985    0.06218990    0.46938026    0.07240000
opls_907-49    C    0.68047991    0.02619991    0.58057983    -0.03180000
opls_136-50    C    0.69238013    0.99473008    0.48946087    -0.19180000
opls_136-51    C    0.73219001    0.01986014    0.33811006    -0.20720000
opls_142-52    C    0.94286005    0.02651012    0.68885031    0.04870000
opls_142-53    C    0.71927990    0.29817983    0.05505008    0.04390000
opls_145-54    C    0.97032999    0.01392009    0.74272916    -0.22740000
opls_145-55    C    0.69417007    0.31315002    0.12086077    -0.04990000
opls_280-56    C    0.95536991    0.96914998    0.77520053    0.32870000
opls_280-57    C    0.71195989    0.35833005    0.15524961    0.16630000
opls_145-58    C    0.81952985    0.68332991    0.63429905    -0.17350000
opls_145-59    C    0.80067990    0.64007999    0.66488088    -0.13120000
opls_700-60    C    0.81619998    0.62308987    0.85130093    -0.00210000
opls_624-61    C    0.85001994    0.65045007    0.00467098    0.10390000
opls_624-62    C    0.86797015    0.69231004    0.97993934    0.08420000
opls_700-63    C    0.85399000    0.71054997    0.79236003    0.00320000
opls_700-64    C    0.87450009    0.75610009    0.75419011    0.06940000
opls_700-65    C    0.79737997    0.57814999    0.88334930    0.06970000
opls_145-66    C    0.91772984    0.78109989    0.76808931    -0.12800000
opls_145-67    C    0.93680986    0.82378987    0.72855062    -0.17540000
opls_916-68    C    0.91306006    0.84249003    0.66929047    0.17800000
opls_145-69    C    0.86994991    0.81745998    0.65265972    -0.17210000
opls_145-70    C    0.85084998    0.77487988    0.69623090    -0.12960000
opls_145-71    C    0.76238993    0.55633011    0.04491999    -0.12760000
opls_145-72    C    0.74484001    0.51365988    0.07899956    -0.18020000
opls_916-73    C    0.76160013    0.49209002    0.94671974    0.18030000
opls_145-74    C    0.79699002    0.51433000    0.78783072    -0.17500000
opls_145-75    C    0.81488009    0.55706999    0.75740053    -0.12070000
opls_627-76    C    0.90402995    0.68173007    0.27560956    0.27960000
opls_137-77    C    0.93780985    0.68919988    0.46938026    0.07240000
opls_907-78    C    0.97380004    0.65428005    0.58057983    -0.03180000
opls_136-79    C    0.00527014    0.69765003    0.48946087    -0.19180000
opls_136-80    C    0.98014008    0.71233007    0.33811006    -0.20720000
opls_142-81    C    0.97348998    0.91634982    0.68885031    0.04870000
opls_142-82    C    0.70181996    0.42109994    0.05505008    0.04390000
opls_145-83    C    0.98608010    0.95640993    0.74272916    -0.22740000
opls_145-84    C    0.68684994    0.38102007    0.12086077    -0.04980000
opls_280-85    C    0.03084997    0.98622005    0.77520053    0.32870000
opls_280-86    C    0.64166985    0.35362993    0.15524961    0.16630000
opls_557-87    N    0.35865986    0.23074995    0.19623090    -0.38950000
opls_559-88    N    0.28809005    0.19040987    0.15708927    -0.39450000
opls_901-89    N    0.34992001    0.28257996    0.57075901    -0.39700000
opls_238-90    N    0.11366991    0.04503989    0.62507083    -0.33860000
opls_238-91    N    0.55189985    0.29585987    0.97459994    -0.33890000
opls_557-92    N    0.76925003    0.12791006    0.19623090    -0.38950000
opls_559-93    N    0.80958991    0.09767985    0.15708927    -0.39460000
opls_901-94    N    0.71742015    0.06734006    0.57075901    -0.39710000
opls_238-95    N    0.95496008    0.06862999    0.62507083    -0.33860000
opls_238-96    N    0.70414007    0.25603990    0.97459994    -0.33890000
opls_557-97    N    0.87209011    0.64133999    0.19623090    -0.38950000
opls_559-98    N    0.90231989    0.71190997    0.15708927    -0.39440000
opls_901-99    N    0.93266010    0.65007998    0.57075901    -0.39700000
opls_238-100    N    0.93136985    0.88632981    0.62507083    -0.33860000
opls_238-101    N    0.74395993    0.44809992    0.97459994    -0.33900000
opls_281-102    O    0.02630006    0.08041007    0.84172952    -0.37010000
opls_281-103    O    0.63166991    0.25197996    0.22258071    -0.34360000
opls_281-104    O    0.91958997    0.94588984    0.84172952    -0.37020000
opls_281-105    O    0.74801993    0.37969001    0.22258071    -0.34360000
opls_281-106    O    0.05410997    0.97370008    0.84172952    -0.37010000
opls_281-107    O    0.62030989    0.36833003    0.22258071    -0.34360000
opls_146-108    H    0.30469996    0.11237007    0.48252923    0.12070000
opls_146-109    H    0.37998991    0.15451001    0.54068000    0.12050000
opls_146-110    H    0.23221019    0.16936012    0.80456922    0.11910000
opls_146-111    H    0.15855000    0.12862988    0.74107905    0.12000000
opls_146-112    H    0.16891001    0.01987001    0.60837025    0.11540000
opls_146-113    H    0.24328996    0.06074008    0.68665948    0.11540000
opls_146-114    H    0.42757993    0.17652991    0.14625085    0.11780000
opls_146-115    H    0.50215994    0.22065984    0.21060098    0.11480000
opls_146-116    H    0.50151002    0.31222988    0.68669939    0.11540000
opls_146-117    H    0.42632997    0.26865987    0.63611078    0.11980000
opls_562-118    H    0.38735000    0.25636987    0.24076978    0.27140000
opls_140-119    H    0.29196007    0.22890997    0.63860090    0.09550000
opls_910-120    H    0.35481009    0.27539999    0.76447983    0.27140000
opls_140-121    H    0.36878993    0.34305983    0.44261942    0.06350000
opls_140-122    H    0.35160993    0.33287002    0.78548027    0.07000000
opls_140-123    H    0.30232004    0.33193012    0.36138912    0.12340000
opls_140-124    H    0.28217010    0.30204006    0.66627958    0.12100000
opls_140-125    H    0.29654006    0.27497989    0.12420089    0.12060000
opls_140-126    H    0.25361009    0.24736010    0.35410032    0.11560000
opls_910-127    H    0.10347994    0.01619993    0.53663953    0.27130000
opls_910-128    H    0.56490002    0.32571011    0.89648031    0.27130000
opls_144-129    H    0.09293003    0.08953004    0.67851071    0.08990000
opls_144-130    H    0.56733016    0.24779008    0.04092941    0.10270000
opls_146-131    H    0.88763019    0.19233011    0.48252923    0.12070000
opls_146-132    H    0.84548997    0.22548003    0.54068000    0.12050000
opls_146-133    H    0.83063997    0.06285015    0.80456922    0.11920000
opls_146-134    H    0.87137011    0.02992000    0.74107905    0.12000000
opls_146-135    H    0.98012993    0.14904007    0.60837025    0.11550000
opls_146-136    H    0.93926005    0.18254990    0.68665948    0.11540000
opls_146-137    H    0.82346984    0.25104994    0.14625085    0.11780000
opls_146-138    H    0.77933998    0.28149993    0.21060098    0.11480000
opls_146-139    H    0.68777005    0.18928014    0.68669939    0.11540000
opls_146-140    H    0.73133982    0.15766986    0.63611078    0.11980000
opls_562-141    H    0.74363001    0.13098010    0.24076978    0.27130000
opls_140-142    H    0.77108984    0.06304986    0.63860090    0.09560000
opls_910-143    H    0.72460003    0.07940998    0.76447983    0.27140000
opls_140-144    H    0.65694013    0.02573011    0.44261942    0.06350000
opls_140-145    H    0.66713004    0.01873997    0.78548027    0.07000000
opls_140-146    H    0.66806988    0.97038991    0.36138912    0.12340000
opls_140-147    H    0.69795991    0.98012999    0.66627958    0.12100000
opls_140-148    H    0.72501992    0.02155998    0.12420089    0.12060000
opls_140-149    H    0.75263993    0.00624995    0.35410032    0.11560000
opls_910-150    H    0.98380003    0.08728014    0.53663953    0.27140000
opls_910-151    H    0.67428996    0.23918991    0.89648031    0.27130000
opls_144-152    H    0.91047011    0.00340000    0.67851071    0.08990000
opls_144-153    H    0.75221009    0.31954011    0.04092941    0.10480000
opls_146-154    H    0.80766985    0.69529982    0.48252923    0.12080000
opls_146-155    H    0.77452011    0.62000996    0.54068000    0.12050000
opls_146-156    H    0.93714999    0.76779004    0.80456922    0.11910000
opls_146-157    H    0.97008001    0.84144981    0.74107905    0.12000000
opls_146-158    H    0.85096006    0.83108992    0.60837025    0.11540000
opls_146-159    H    0.81744999    0.75671002    0.68665948    0.11540000
opls_146-160    H    0.74894980    0.57241984    0.14625085    0.11780000
opls_146-161    H    0.71849993    0.49783993    0.21060098    0.11480000
opls_146-162    H    0.81071994    0.49848999    0.68669939    0.11550000
opls_146-163    H    0.84233006    0.57366996    0.63611078    0.11980000
opls_562-164    H    0.86901999    0.61265004    0.24076978    0.27130000
opls_140-165    H    0.93694993    0.70803987    0.63860090    0.09550000
opls_910-166    H    0.92059014    0.64519003    0.76447983    0.27140000
opls_140-167    H    0.97426994    0.63121005    0.44261942    0.06350000
opls_140-168    H    0.98126003    0.64839001    0.78548027    0.07000000
opls_140-169    H    0.02961007    0.69767997    0.36138912    0.12340000
opls_140-170    H    0.01986999    0.71782995    0.66627958    0.12110000
opls_140-171    H    0.97843986    0.70345982    0.12420089    0.12060000
opls_140-172    H    0.99374998    0.74638995    0.35410032    0.11560000
opls_910-173    H    0.91272003    0.89651993    0.53663953    0.27140000
opls_910-174    H    0.76081001    0.43509998    0.89648031    0.27130000
opls_144-175    H    0.99659987    0.90706996    0.67851071    0.08990000
opls_144-176    H    0.68046002    0.43266982    0.04092941    0.10260000
