#======================================================================
# Crystal Data Generated By AuToFF
#----------------------------------------------------------------------

data_AuToFF_phase_1

_cell_length_a                         35.9604
_cell_length_b                         38.3321
_cell_length_c                         7.3127
_cell_angle_alpha                      90.00
_cell_angle_beta                       90.00
_cell_angle_gamma                      120.00
_symmetry_space_group_name_H-M_alt     'P 1'
_symmetry_space_group_IT_number        1

loop_
_space_group_symop_operation_xyz
   'x, y, z'

loop_
   _atom_site_label
   _atom_site_type_symbol
   _atom_site_fract_x
   _atom_site_fract_y
   _atom_site_fract_z
   _atom_site_charge
opls_166-0    C    0.54681995    0.04507002    0.07400003    0.30120000
opls_700-1    C    0.56832996    0.02482997    0.13434983    -0.02990000
opls_145-2    C    0.61053009    0.04701992    0.19773955    -0.14770000
opls_145-3    C    0.67273994    0.36445994    0.04399059    -0.06640000
opls_145-4    C    0.28667998    0.71499013    0.03412009    -0.06180000
opls_145-5    C    0.24198003    0.69229020    0.02101002    -0.11070000
opls_145-6    C    0.22108012    0.65003011    0.02229956    0.26750000
opls_145-7    C    0.24537003    0.63092000    0.03691933    -0.09180000
opls_145-8    C    0.29004994    0.65361000    0.04963010    -0.06160000
opls_145-9    C    0.49140985    0.85242993    0.10761005    -0.06180000
opls_145-10    C    0.51196988    0.89444000    0.11506010    -0.11080000
opls_145-11    C    0.48788985    0.91402997    0.10505969    0.26070000
opls_145-12    C    0.44333991    0.89117008    0.08807007    -0.09170000
opls_145-13    C    0.42278986    0.84921996    0.08087984    -0.07700000
opls_145-14    C    0.43288996    0.65994017    0.07982961    -0.06160000
opls_145-15    C    0.45672988    0.64028995    0.07524991    -0.11080000
opls_145-16    C    0.50164984    0.66256996    0.06033066    0.26440000
opls_145-17    C    0.52226018    0.70456014    0.05100031    -0.09190000
opls_145-18    C    0.49839007    0.72421006    0.05619949    -0.06180000
opls_700-19    C    0.31121988    0.69588003    0.04854978    0.08400000
opls_700-20    C    0.44659005    0.82936008    0.09056026    0.08830000
opls_700-21    C    0.45345016    0.70211019    0.07025039    0.08820000
opls_700-22    C    0.42804996    0.72283010    0.07259015    0.09830000
opls_145-23    C    0.44844000    0.76494017    0.08170990    -0.06720000
opls_700-24    C    0.42467005    0.78484012    0.08116975    0.09580000
opls_145-25    C    0.37978015    0.76191004    0.07050064    -0.06720000
opls_700-26    C    0.35860005    0.71978009    0.06150943    0.09890000
opls_145-27    C    0.38313000    0.70062991    0.06283042    -0.06720000
opls_145-28    C    0.60231001    0.58361993    0.99943933    -0.14770000
opls_166-29    C    0.58038993    0.60538995    0.00566002    0.29420000
opls_700-30    C    0.53682997    0.58511015    0.05871019    -0.02570000
opls_145-31    C    0.51661015    0.54427009    0.10312060    -0.14770000
opls_166-32    C    0.53859997    0.52254013    0.09788040    0.28950000
opls_700-33    C    0.58206988    0.54276993    0.04397965    -0.02210000
opls_700-34    C    0.69725009    0.34527001    0.04701957    0.09380000
opls_145-35    C    0.74209007    0.36878991    0.03323943    -0.06730000
opls_700-36    C    0.76235984    0.41075991    0.01506010    0.09850000
opls_145-37    C    0.73711010    0.42911994    0.01234975    -0.06730000
opls_700-38    C    0.69233006    0.40642000    0.02736062    0.09830000
opls_700-39    C    0.66644998    0.42666004    0.02965936    0.08830000
opls_700-40    C    0.80965000    0.43551999    0.00156987    0.09720000
opls_700-41    C    0.67608000    0.30092989    0.06386013    0.08730000
opls_145-42    C    0.68642019    0.46867011    0.01154020    -0.06160000
opls_145-43    C    0.66232010    0.48802000    0.01784977    -0.11080000
opls_145-44    C    0.61768999    0.46563997    0.04275028    0.26050000
opls_145-45    C    0.59759997    0.42380011    0.06050023    -0.09190000
opls_145-46    C    0.62175996    0.40443998    0.05398006    -0.06180000
opls_145-47    C    0.83562985    0.41833991    0.03067950    -0.06160000
opls_145-48    C    0.88031019    0.44206013    0.02241990    -0.09180000
opls_145-49    C    0.89975010    0.48318998    0.98423017    0.26750000
opls_145-50    C    0.87391998    0.50058003    0.95510960    -0.11080000
opls_145-51    C    0.82930012    0.47693000    0.96398047    -0.06160000
opls_145-52    C    0.63131994    0.27695000    0.04637959    -0.06180000
opls_145-53    C    0.61129986    0.23503995    0.05954025    -0.09190000
opls_145-54    C    0.63560987    0.21641001    0.09137938    0.24880000
opls_145-55    C    0.68037984    0.24018988    0.10961068    -0.11070000
opls_145-56    C    0.70039991    0.28208999    0.09565003    -0.06180000
opls_142-57    C    0.96590996    0.54524007    0.94858944    0.01810000
opls_166-58    C    0.03462006    0.61161018    0.92386943    0.28000000
opls_700-59    C    0.01296997    0.56961999    0.95644974    -0.03010000
opls_142-60    C    0.54858011    0.98066999    0.13351019    0.01650000
opls_142-61    C    0.51064988    0.60472001    0.06943947    0.01650000
opls_142-62    C    0.60822996    0.52317001    0.03174067    0.01650000
opls_142-63    C    0.63362992    0.15377010    0.14326993    0.01810000
opls_182-64    C    0.64463995    0.66450992    0.90732014    -0.01480000
opls_182-65    C    0.66149022    0.70822016    0.85775979    -0.01460000
opls_182-66    C    0.71680005    0.76546011    0.76584025    -0.00210000
opls_136-67    C    0.76381000    0.78791996    0.71278051    -0.12310000
opls_182-68    C    0.47556018    0.46409012    0.21096996    -0.01490000
opls_182-69    C    0.45921008    0.42039012    0.25974948    -0.01530000
opls_182-70    C    0.39811992    0.36297003    0.27118028    -0.00200000
opls_136-71    C    0.35343992    0.33942001    0.35350008    -0.12790000
opls_182-72    C    0.48518010    0.04516009    0.94676932    -0.01480000
opls_182-73    C    0.44307996    0.01760001    0.84976958    -0.01450000
opls_182-74    C    0.41144015    0.95303009    0.92478975    -0.00190000
opls_136-75    C    0.36622001    0.92168016    0.86990988    -0.12320000
opls_182-76    C    0.97912012    0.62570019    0.99341009    -0.01480000
opls_182-77    C    0.95625983    0.64695991    0.92076935    -0.01520000
opls_182-78    C    0.88873985    0.63366998    0.92871033    -0.00210000
opls_136-79    C    0.86894997    0.65791014    0.99837953    -0.12360000
opls_166-80    C    0.08170993    0.57296010    0.00809961    0.28190000
opls_700-81    C    0.10326012    0.61484997    0.97598014    -0.03010000
opls_142-82    C    0.15023020    0.64056015    0.98619935    0.01650000
opls_182-83    C    0.10200996    0.52495996    0.93876954    -0.01490000
opls_182-84    C    0.07299007    0.48257998    0.00924009    -0.01490000
opls_182-85    C    0.00537018    0.43789012    0.07112011    -0.00130000
opls_136-86    C    0.95857989    0.42117996    0.02216008    -0.12360000
opls_166-87    C    0.63228006    0.08933995    0.20405049    0.28560000
opls_700-88    C    0.61097002    0.10951011    0.14410956    -0.02940000
opls_182-89    C    0.69507997    0.08992013    0.31889042    -0.01450000
opls_182-90    C    0.73792992    0.11746997    0.40975016    -0.01500000
opls_182-91    C    0.76923002    0.18385996    0.38717027    -0.00180000
opls_136-92    C    0.81629985    0.21174989    0.42932022    -0.12360000
opls_145-93    C    0.56870984    0.08740993    0.08026994    -0.14820000
opls_145-94    C    0.03687006    0.55097018    0.99891012    -0.14770000
opls_145-95    C    0.07948008    0.63344014    0.93201006    -0.15320000
opls_750-96    N    0.50779998    0.95698019    0.10895975    -0.19910000
opls_750-97    N    0.59222998    0.48471996    0.05232951    -0.23400000
opls_750-98    N    0.52692008    0.64328001    0.05250044    -0.23400000
opls_750-99    N    0.94562012    0.50694002    0.98295978    -0.23400000
opls_750-100    N    0.17535014    0.62578001    0.01029032    -0.23400000
opls_750-101    N    0.61424005    0.17336008    0.09952001    -0.23400000
opls_750-102    N    0.77598017    0.82833016    0.65950059    -0.05500000
opls_750-103    N    0.33226994    0.29816002    0.29242004    -0.09970000
opls_750-104    N    0.36448001    0.88381992    0.84160980    -0.05300000
opls_750-105    N    0.82977007    0.64669995    0.90159038    -0.05510000
opls_750-106    N    0.32973999    0.85836007    0.78224049    -0.13370000
opls_424-107    N    0.29509997    0.83277007    0.72267015    -0.18870000
opls_750-108    N    0.81389998    0.84761016    0.61950032    -0.13370000
opls_424-109    N    0.85182005    0.86696005    0.57991987    -0.18870000
opls_750-110    N    0.81245010    0.66480995    0.95958948    -0.13370000
opls_424-111    N    0.79514006    0.68294014    0.01771028    -0.18850000
opls_750-112    N    0.34614004    0.27867006    0.36823061    -0.13370000
opls_424-113    N    0.35999994    0.25915991    0.44314959    -0.18880000
opls_750-114    N    0.94282018    0.38361011    0.92686012    -0.05500000
opls_750-115    N    0.90525011    0.36938003    0.88414949    -0.17310000
opls_750-116    N    0.86765985    0.35505988    0.84170963    -0.18160000
opls_750-117    N    0.82175992    0.24785000    0.51381022    -0.05140000
opls_750-118    N    0.85884004    0.26999988    0.55970982    -0.13370000
opls_424-119    N    0.89590001    0.29222989    0.60581044    -0.18880000
opls_179-120    O    0.60056010    0.64637009    0.95682033    -0.15060000
opls_180-121    O    0.70508016    0.72625003    0.81687065    -0.09320000
opls_179-122    O    0.51851008    0.48158018    0.14617036    -0.14870000
opls_180-123    O    0.41729999    0.40315008    0.32530939    -0.09320000
opls_179-124    O    0.50507995    0.02268005    0.00179004    -0.14950000
opls_180-125    O    0.41312019    0.98918021    0.97016013    -0.10370000
opls_179-126    O    0.01337012    0.63247016    0.87451967    -0.14070000
opls_180-127    O    0.92322995    0.64057010    0.04029975    -0.09090000
opls_179-128    O    0.10394009    0.55378010    0.06642006    -0.12650000
opls_180-129    O    0.03098996    0.46950995    0.95340982    -0.09320000
opls_179-130    O    0.67423000    0.11208989    0.27358021    -0.15180000
opls_180-131    O    0.76411992    0.14975011    0.29588934    -0.09940000
opls_146-132    H    0.62810005    0.03082999    0.24582029    0.05520000
opls_146-133    H    0.63627003    0.34589989    0.05515063    0.05590000
opls_146-134    H    0.30323021    0.74927018    0.03303021    0.05590000
opls_146-135    H    0.22234008    0.70808008    0.00923052    0.05590000
opls_146-136    H    0.22872995    0.59663001    0.03850972    0.05590000
opls_146-137    H    0.30969993    0.63783999    0.06104038    0.05590000
opls_146-138    H    0.51136994    0.83690002    0.11550043    0.05520000
opls_146-139    H    0.54839008    0.91288016    0.12929014    0.05590000
opls_146-140    H    0.42344986    0.90675995    0.07995952    0.05590000
opls_146-141    H    0.38637009    0.83078011    0.06702996    0.05590000
opls_146-142    H    0.39642000    0.64143012    0.09145049    0.05520000
opls_146-143    H    0.43973017    0.60603008    0.08362985    0.05590000
opls_146-144    H    0.55873005    0.72295993    0.03907996    0.05590000
opls_146-145    H    0.51539998    0.75849011    0.04902020    0.05590000
opls_146-146    H    0.48494997    0.78358999    0.08974934    0.05590000
opls_146-147    H    0.35985998    0.77752009    0.06903059    0.05590000
opls_146-148    H    0.36588009    0.66633993    0.05577967    0.05590000
opls_146-149    H    0.63750993    0.60019002    0.95664939    0.05590000
opls_146-150    H    0.48134992    0.52764005    0.14502031    0.05590000
opls_146-151    H    0.76260998    0.35379017    0.03674976    0.05590000
opls_146-152    H    0.75294019    0.46322015    0.99770946    0.05590000
opls_146-153    H    0.72267013    0.48730004    0.99143955    0.05590000
opls_146-154    H    0.67888995    0.52215997    0.00275001    0.05590000
opls_146-155    H    0.56133999    0.40530995    0.08039985    0.05590000
opls_146-156    H    0.60519009    0.37029006    0.06846992    0.05590000
opls_146-157    H    0.82029997    0.38478011    0.06133986    0.05590000
opls_146-158    H    0.90118017    0.42786017    0.04694025    0.05520000
opls_146-159    H    0.88941018    0.53413018    0.92410054    0.05590000
opls_146-160    H    0.80844986    0.49118990    0.94061017    0.05590000
opls_146-161    H    0.61097009    0.29165001    0.02120010    0.05590000
opls_146-162    H    0.57495994    0.21588013    0.04429007    0.05590000
opls_146-163    H    0.70052011    0.22531002    0.13590056    0.05590000
opls_146-164    H    0.73675001    0.30126004    0.11007972    0.05590000
opls_144-165    H    0.94611991    0.55995996    0.91139935    0.03300000
opls_144-166    H    0.57049009    0.96749001    0.15547062    0.03300000
opls_144-167    H    0.47471994    0.58457997    0.09370957    0.03300000
opls_144-168    H    0.64396003    0.54327992    0.00284026    0.03300000
opls_144-169    H    0.66905996    0.17086012    0.18231023    0.03300000
opls_185-170    H    0.64811999    0.64796002    0.78484965    0.05090000
opls_185-171    H    0.66378004    0.66266997    0.02747959    0.05090000
opls_185-172    H    0.65670986    0.72447997    0.97810932    0.05090000
opls_185-173    H    0.64333015    0.71002004    0.73367019    0.05090000
opls_185-174    H    0.71137002    0.78145995    0.88551971    0.05090000
opls_185-175    H    0.69647010    0.76460008    0.64444049    0.05090000
opls_140-176    H    0.76924989    0.77183998    0.59350035    0.06130000
opls_140-177    H    0.78412008    0.78885017    0.83438949    0.06130000
opls_185-178    H    0.45440006    0.46591018    0.09965950    0.05090000
opls_185-179    H    0.47471989    0.48110995    0.33728992    0.05090000
opls_185-180    H    0.48066999    0.41857999    0.36965963    0.05090000
opls_185-181    H    0.45975014    0.40336005    0.13290987    0.05090000
opls_185-182    H    0.41843001    0.34959997    0.32030987    0.05090000
opls_185-183    H    0.39564990    0.36108008    0.11567957    0.05090000
opls_140-184    H    0.33373995    0.35382993    0.31007015    0.06130000
opls_140-185    H    0.35595995    0.34003001    0.50898984    0.06130000
opls_185-186    H    0.50746998    0.07029009    0.84995966    0.05090000
opls_185-187    H    0.47854988    0.05880999    0.07240964    0.05090000
opls_185-188    H    0.44928004    0.00132996    0.73355942    0.05090000
opls_185-189    H    0.42931005    0.03632002    0.79108947    0.05090000
opls_185-190    H    0.42175006    0.94165000    0.04787014    0.05090000
opls_185-191    H    0.43408999    0.95830021    0.80559985    0.05090000
opls_140-192    H    0.35712012    0.93141008    0.73795999    0.06130000
opls_140-193    H    0.34290018    0.91843013    0.98311021    0.06130000
opls_185-194    H    0.99247010    0.63781017    0.13529066    0.05090000
opls_185-195    H    0.95534009    0.59200002    0.00264061    0.05090000
opls_185-196    H    0.94227004    0.63443994    0.78011952    0.05090000
opls_185-197    H    0.98001989    0.68062002    0.90940008    0.05090000
opls_185-198    H    0.86364004    0.60025991    0.93114034    0.05090000
opls_185-199    H    0.90057009    0.64318994    0.78266030    0.05090000
opls_140-200    H    0.89243001    0.69135998    0.97655996    0.06130000
opls_140-201    H    0.86166995    0.65182999    0.15052033    0.06130000
opls_144-202    H    0.16561016    0.67464018    0.97279938    0.03300000
opls_185-203    H    0.13566998    0.52987010    0.91644946    0.05090000
opls_185-204    H    0.08878993    0.52876005    0.80317940    0.05090000
opls_185-205    H    0.07444000    0.48250015    0.16495959    0.05090000
opls_185-206    H    0.08408022    0.46164016    0.95171004    0.05090000
opls_185-207    H    0.01105984    0.44936992    0.21803028    0.05090000
opls_185-208    H    0.01395008    0.41312009    0.05740014    0.05090000
opls_140-209    H    0.95526003    0.44355998    0.93077933    0.06130000
opls_140-210    H    0.93907000    0.41603997    0.15238011    0.06130000
MOF2_H_-211    H    0.84714004    0.36456989    0.91476062    0.21850000
opls_185-212    H    0.70060003    0.07669015    0.18899996    0.05090000
opls_185-213    H    0.67399985    0.06447985    0.41684057    0.05090000
opls_185-214    H    0.75469989    0.09960999    0.44160023    0.05090000
opls_185-215    H    0.73236001    0.12977003    0.54252055    0.05090000
opls_185-216    H    0.75017010    0.17438006    0.52024013    0.05090000
opls_185-217    H    0.75697989    0.20024991    0.29702982    0.05090000
opls_140-218    H    0.83561984    0.21978988    0.29702982    0.06130000
opls_140-219    H    0.82807993    0.19605007    0.52628988    0.06130000
opls_146-220    H    0.55128011    0.10371011    0.03191981    0.05590000
opls_146-221    H    0.01980019    0.51719018    0.02680952    0.05520000
opls_146-222    H    0.09662011    0.66712013    0.90181055    0.05590000
