#======================================================================
# Crystal Data Generated By AuToFF
#----------------------------------------------------------------------

data_AuToFF_phase_1

_cell_length_a                         4.5582
_cell_length_b                         17.3644
_cell_length_c                         24.2215
_cell_angle_alpha                      90.00
_cell_angle_beta                       93.64
_cell_angle_gamma                      90.00
_symmetry_space_group_name_H-M_alt     'P 1'
_symmetry_space_group_IT_number        1

loop_
_space_group_symop_operation_xyz
   'x, y, z'

loop_
   _atom_site_label
   _atom_site_type_symbol
   _atom_site_fract_x
   _atom_site_fract_y
   _atom_site_fract_z
   _atom_site_charge
opls_522-0    C    0.08336003    0.18026019    0.54515974    -0.16040000
opls_521-1    C    0.29377992    0.18114994    0.50298994    0.06300000
opls_142-2    C    0.38439014    0.10938011    0.47508000    0.02320000
opls_145-3    C    0.65008941    0.05412971    0.39543991    0.20870000
opls_145-4    C    0.49890976    0.98391018    0.39079997    -0.13300000
opls_145-5    C    0.54360922    0.93597994    0.34442006    -0.16040000
opls_916-6    C    0.73748986    0.95771982    0.30200991    0.19060000
opls_145-7    C    0.90151020    0.02527009    0.30901987    -0.16240000
opls_145-8    C    0.85815049    0.07282025    0.35530008    -0.13320000
opls_145-9    C    0.88336079    0.79036016    0.29351977    -0.19090000
opls_522-10    C    0.41616985    0.18024982    0.95463983    -0.16040000
opls_521-11    C    0.20630145    0.18114994    0.99690974    0.06290000
opls_142-12    C    0.11608015    0.10938990    0.02488008    0.02320000
opls_145-13    C    0.85174996    0.05417003    0.10468978    0.20880000
opls_145-14    C    0.00323005    0.98399023    0.10930986    -0.13310000
opls_145-15    C    0.95906061    0.93605998    0.15570012    -0.16030000
opls_916-16    C    0.76537001    0.95774976    0.19815991    0.19060000
opls_145-17    C    0.60111967    0.02527009    0.19119008    -0.16240000
opls_145-18    C    0.64398900    0.07283004    0.14489994    -0.13320000
opls_145-19    C    0.61987940    0.79036016    0.20661985    -0.19090000
opls_916-20    C    0.75163991    0.83169991    0.25007002    0.18090000
opls_522-21    C    0.91663983    0.68026019    0.45483985    -0.16040000
opls_521-22    C    0.70622008    0.68114994    0.49701006    0.06300000
opls_142-23    C    0.61560986    0.60938011    0.52492000    0.02320000
opls_145-24    C    0.34991059    0.55412971    0.60456009    0.20870000
opls_145-25    C    0.50109024    0.48391018    0.60920003    -0.13310000
opls_145-26    C    0.45639078    0.43597994    0.65557994    -0.16040000
opls_916-27    C    0.26251014    0.45771982    0.69799009    0.19060000
opls_145-28    C    0.09848966    0.52527009    0.69097972    -0.16240000
opls_145-29    C    0.14184951    0.57282025    0.64469992    -0.13320000
opls_145-30    C    0.11664126    0.29036016    0.70647982    -0.19090000
opls_522-31    C    0.58383015    0.68024982    0.04536017    -0.16040000
opls_521-32    C    0.79370060    0.68114994    0.00308984    0.06290000
opls_142-33    C    0.88391985    0.60938990    0.97511992    0.02320000
opls_145-34    C    0.14824990    0.55417003    0.89530980    0.20870000
opls_145-35    C    0.99676981    0.48399023    0.89068972    -0.13310000
opls_145-36    C    0.04094159    0.43605998    0.84429988    -0.16040000
opls_916-37    C    0.23462999    0.45774976    0.80184009    0.19060000
opls_145-38    C    0.39888033    0.52527009    0.80880992    -0.16240000
opls_145-39    C    0.35601100    0.57283004    0.85510006    -0.13320000
opls_145-40    C    0.38012046    0.29036016    0.79337974    -0.19090000
opls_916-41    C    0.24836009    0.33169991    0.74992998    0.18090000
opls_522-42    C    0.91663983    0.81973981    0.45483985    -0.16040000
opls_521-43    C    0.70622008    0.81885006    0.49701006    0.06300000
opls_142-44    C    0.61560986    0.89061989    0.52492000    0.02320000
opls_145-45    C    0.34991059    0.94587029    0.60456009    0.20870000
opls_145-46    C    0.50109024    0.01608982    0.60920003    -0.13310000
opls_145-47    C    0.45639078    0.06402006    0.65557994    -0.16040000
opls_916-48    C    0.26251014    0.04228018    0.69799009    0.19060000
opls_145-49    C    0.09848966    0.97472991    0.69097972    -0.16240000
opls_145-50    C    0.14184951    0.92717975    0.64469992    -0.13320000
opls_145-51    C    0.11664126    0.20963984    0.70647982    -0.19090000
opls_522-52    C    0.58383015    0.81975018    0.04536017    -0.16040000
opls_521-53    C    0.79370060    0.81885006    0.00308984    0.06290000
opls_142-54    C    0.88391985    0.89061010    0.97511992    0.02320000
opls_145-55    C    0.14824990    0.94582997    0.89530980    0.20870000
opls_145-56    C    0.99676981    0.01600977    0.89068972    -0.13310000
opls_145-57    C    0.04094159    0.06394002    0.84429988    -0.16040000
opls_916-58    C    0.23462999    0.04225024    0.80184009    0.19060000
opls_145-59    C    0.39888033    0.97472991    0.80880992    -0.16240000
opls_145-60    C    0.35601100    0.92716996    0.85510006    -0.13320000
opls_145-61    C    0.38012046    0.20963984    0.79337974    -0.19090000
opls_916-62    C    0.24836009    0.16830009    0.74992998    0.18090000
opls_522-63    C    0.08336003    0.31973981    0.54515974    -0.16030000
opls_521-64    C    0.29377992    0.31885006    0.50298994    0.06300000
opls_142-65    C    0.38439014    0.39061989    0.47508000    0.02320000
opls_145-66    C    0.65008941    0.44587029    0.39543991    0.20870000
opls_145-67    C    0.49890976    0.51608982    0.39079997    -0.13310000
opls_145-68    C    0.54360922    0.56402006    0.34442006    -0.16040000
opls_916-69    C    0.73748986    0.54228018    0.30200991    0.19060000
opls_145-70    C    0.90151020    0.47472991    0.30901987    -0.16230000
opls_145-71    C    0.85815049    0.42717975    0.35530008    -0.13320000
opls_145-72    C    0.88336079    0.70963984    0.29351977    -0.19080000
opls_522-73    C    0.41616985    0.31975018    0.95463983    -0.16040000
opls_521-74    C    0.20630145    0.31885006    0.99690974    0.06290000
opls_142-75    C    0.11608015    0.39061010    0.02488008    0.02320000
opls_145-76    C    0.85174996    0.44582997    0.10468978    0.20870000
opls_145-77    C    0.00323005    0.51600977    0.10930986    -0.13300000
opls_145-78    C    0.95906061    0.56394002    0.15570012    -0.16040000
opls_916-79    C    0.76537001    0.54225024    0.19815991    0.19060000
opls_145-80    C    0.60111967    0.47472991    0.19119008    -0.16240000
opls_145-81    C    0.64398900    0.42716996    0.14489994    -0.13320000
opls_145-82    C    0.61987940    0.70963984    0.20661985    -0.19090000
opls_916-83    C    0.75163991    0.66830009    0.25007002    0.18090000
opls_523-84    C    0.97543082    0.25000000    0.56574986    -0.09540000
opls_523-85    C    0.52387069    0.25000000    0.93400999    -0.09540000
opls_523-86    C    0.02457137    0.75000000    0.43425014    -0.09540000
opls_523-87    C    0.47612931    0.75000000    0.06599001    -0.09540000
opls_750-88    N    0.57162958    0.11314010    0.43455006    -0.23110000
opls_750-89    N    0.92963917    0.11317984    0.06553992    -0.23120000
opls_239-90    N    0.75157964    0.91517012    0.25007995    -0.14990000
opls_750-91    N    0.42837042    0.61314010    0.56544994    -0.23120000
opls_750-92    N    0.07036069    0.61317984    0.93445967    -0.23110000
opls_239-93    N    0.24842036    0.41517012    0.74992005    -0.15010000
opls_750-94    N    0.42837042    0.88685990    0.56544994    -0.23120000
opls_750-95    N    0.07036069    0.88682016    0.93445967    -0.23120000
opls_239-96    N    0.24842036    0.08482988    0.74992005    -0.15010000
opls_750-97    N    0.57162958    0.38685990    0.43455006    -0.23110000
opls_750-98    N    0.92963917    0.38682016    0.06553992    -0.23120000
opls_239-99    N    0.75157964    0.58482988    0.25007995    -0.15010000
opls_520-100    N    0.39140037    0.25000000    0.48324001    -0.39540000
opls_520-101    N    0.10896023    0.25000000    0.01672007    -0.39690000
opls_520-102    N    0.60859963    0.75000000    0.51675999    -0.39540000
opls_520-103    N    0.89103977    0.75000000    0.98327993    -0.39700000
opls_525-104    H    0.99812041    0.12631994    0.56057006    0.11150000
opls_144-105    H    0.27429142    0.05617989    0.48543008    0.10330000
opls_146-106    H    0.33536949    0.96805994    0.42079987    0.10860000
opls_146-107    H    0.41668063    0.88402997    0.33995015    0.10030000
opls_146-108    H    0.05399994    0.04272995    0.27733998    0.05100000
opls_146-109    H    0.97588961    0.12675013    0.35872997    0.12440000
opls_146-110    H    0.98595011    0.82093018    0.32730988    0.25550000
opls_525-111    H    0.50116009    0.12632973    0.93916000    0.11200000
opls_144-112    H    0.22578095    0.05615973    0.01442988    0.10420000
opls_146-113    H    0.16656917    0.96816993    0.07925991    0.10860000
opls_146-114    H    0.08623005    0.88413017    0.16011004    0.10030000
opls_146-115    H    0.44877947    0.04270001    0.22291010    0.05100000
opls_146-116    H    0.52605938    0.12673977    0.14151017    0.12450000
opls_146-117    H    0.51717949    0.82093997    0.17284008    0.25550000
opls_525-118    H    0.00187959    0.62631994    0.43942994    0.11150000
opls_144-119    H    0.72571077    0.55617989    0.51456992    0.10350000
opls_146-120    H    0.66463037    0.46805994    0.57919972    0.10870000
opls_146-121    H    0.58331937    0.38402997    0.66004985    0.10040000
opls_146-122    H    0.94600006    0.54272995    0.72266002    0.05100000
opls_146-123    H    0.02411039    0.62675013    0.64127003    0.12430000
opls_146-124    H    0.01404975    0.32093018    0.67268970    0.25570000
opls_525-125    H    0.49883991    0.62632973    0.06084000    0.11200000
opls_144-126    H    0.77422110    0.55615973    0.98556970    0.10420000
opls_146-127    H    0.83343069    0.46816993    0.92073968    0.10860000
opls_146-128    H    0.91376995    0.38413017    0.83988996    0.10030000
opls_146-129    H    0.55122053    0.54270001    0.77708990    0.05100000
opls_146-130    H    0.47394062    0.62673977    0.85848983    0.12450000
opls_146-131    H    0.48282051    0.32093997    0.82715992    0.25560000
opls_525-132    H    0.00187959    0.87368006    0.43942994    0.11150000
opls_144-133    H    0.72571077    0.94382011    0.51456992    0.10350000
opls_146-134    H    0.66463037    0.03194006    0.57919972    0.10860000
opls_146-135    H    0.58331937    0.11597003    0.66004985    0.10030000
opls_146-136    H    0.94600006    0.95727005    0.72266002    0.05100000
opls_146-137    H    0.02411039    0.87324987    0.64127003    0.12430000
opls_146-138    H    0.01404975    0.17906982    0.67268970    0.25560000
opls_525-139    H    0.49883991    0.87367027    0.06084000    0.11200000
opls_144-140    H    0.77422110    0.94384027    0.98556970    0.10420000
opls_146-141    H    0.83343069    0.03183007    0.92073968    0.10860000
opls_146-142    H    0.91376995    0.11586983    0.83988996    0.10030000
opls_146-143    H    0.55122053    0.95729999    0.77708990    0.05110000
opls_146-144    H    0.47394062    0.87326023    0.85848983    0.12450000
opls_146-145    H    0.48282051    0.17906003    0.82715992    0.25550000
opls_525-146    H    0.99812041    0.37368006    0.56057006    0.11150000
opls_144-147    H    0.27429142    0.44382011    0.48543008    0.10330000
opls_146-148    H    0.33536949    0.53194006    0.42079987    0.10860000
opls_146-149    H    0.41668063    0.61597003    0.33995015    0.10040000
opls_146-150    H    0.05399994    0.45727005    0.27733998    0.05100000
opls_146-151    H    0.97588961    0.37324987    0.35872997    0.12430000
opls_146-152    H    0.98595011    0.67906982    0.32730988    0.25550000
opls_525-153    H    0.50116009    0.37367027    0.93916000    0.11200000
opls_144-154    H    0.22578095    0.44384027    0.01442988    0.10420000
opls_146-155    H    0.16656917    0.53183007    0.07925991    0.10860000
opls_146-156    H    0.08623005    0.61586983    0.16011004    0.10030000
opls_146-157    H    0.44877947    0.45729999    0.22291010    0.05110000
opls_146-158    H    0.52605938    0.37326023    0.14151017    0.12450000
opls_146-159    H    0.51717949    0.67906003    0.17284008    0.25560000
opls_526-160    H    0.80166025    0.25000000    0.59624991    0.12180000
opls_526-161    H    0.69721159    0.25000000    0.90341976    0.12180000
opls_526-162    H    0.19833975    0.75000000    0.40375009    0.12180000
opls_526-163    H    0.30279047    0.75000000    0.09657983    0.12180000
