#======================================================================
# Crystal Data Generated By AuToFF
#----------------------------------------------------------------------

data_AuToFF_phase_1

_cell_length_a                         39.6816
_cell_length_b                         39.6816
_cell_length_c                         3.5379
_cell_angle_alpha                      90.00
_cell_angle_beta                       90.00
_cell_angle_gamma                      120.00
_symmetry_space_group_name_H-M_alt     'P 1'
_symmetry_space_group_IT_number        1

loop_
_space_group_symop_operation_xyz
   'x, y, z'

loop_
   _atom_site_label
   _atom_site_type_symbol
   _atom_site_fract_x
   _atom_site_fract_y
   _atom_site_fract_z
   _atom_site_charge
opls_531-0    C    0.37114008    0.67317003    0.89646966    0.33290000
opls_523-1    C    0.41766003    0.65108000    0.72240029    -0.12930000
opls_145-2    C    0.45479007    0.65550016    0.74041098    -0.17920000
opls_145-3    C    0.48486000    0.68789013    0.92299104    0.19930000
opls_145-4    C    0.47835988    0.71741994    0.05447017    -0.16420000
opls_523-5    C    0.44164003    0.71370020    0.03052093    -0.12310000
opls_700-6    C    0.41078006    0.67973015    0.87882077    0.01330000
opls_142-7    C    0.54052013    0.67324016    0.93667995    0.07290000
opls_145-8    C    0.48919005    0.60098000    0.93786992    -0.11460000
opls_145-9    C    0.47938005    0.56259008    0.85783092    -0.12830000
opls_700-10    C    0.50580003    0.55470014    0.66707934    0.06310000
opls_145-11    C    0.54085000    0.58599016    0.53688912    -0.11720000
opls_145-12    C    0.55009999    0.62408007    0.61288900    -0.11630000
opls_700-13    C    0.52443998    0.63239020    0.80905057    0.05880000
opls_716-14    C    0.52456999    0.50264991    0.63093078    0.10700000
opls_716-15    C    0.51509009    0.46479018    0.57824981    0.10520000
opls_700-16    C    0.47761018    0.43572013    0.45469912    0.02220000
opls_145-17    C    0.44944007    0.44723001    0.41609995    -0.12830000
opls_145-18    C    0.45866996    0.48542991    0.49587043    -0.12550000
opls_700-19    C    0.49654989    0.51411003    0.59801012    0.00230000
opls_145-20    C    0.42988004    0.36353010    0.33612030    -0.12570000
opls_145-21    C    0.42240003    0.32633004    0.22864128    -0.12640000
opls_700-22    C    0.45300992    0.31899007    0.15367874    0.06070000
opls_145-23    C    0.49088998    0.35077012    0.17551938    -0.18950000
opls_145-24    C    0.49811994    0.38801994    0.24383109    -0.16900000
opls_700-25    C    0.46832019    0.39534012    0.34584923    0.06880000
opls_142-26    C    0.44239006    0.27809995    0.05512027    0.08710000
opls_145-27    C    0.51772003    0.25128014    0.19929902    -0.16520000
opls_523-28    C    0.55754003    0.26361993    0.22717997    -0.13110000
opls_700-29    C    0.58507991    0.30070999    0.08815964    0.00120000
opls_523-30    C    0.57203997    0.32274008    0.89083920    -0.11460000
opls_145-31    C    0.53236006    0.30831010    0.83989090    -0.16560000
opls_145-32    C    0.50524998    0.27513999    0.03108058    0.19770000
opls_531-33    C    0.62729999    0.31737012    0.14249979    0.35820000
opls_531-34    C    0.32682993    0.69797007    0.89646966    0.33290000
opls_523-35    C    0.34891993    0.76658004    0.72240029    -0.12930000
opls_145-36    C    0.34450009    0.79929010    0.74041098    -0.17930000
opls_145-37    C    0.31210997    0.79697002    0.92299104    0.19930000
opls_145-38    C    0.28258007    0.76094004    0.05447017    -0.16420000
opls_523-39    C    0.28630007    0.72794016    0.03052093    -0.12310000
opls_700-40    C    0.32027001    0.73104998    0.87882077    0.01330000
opls_142-41    C    0.32675997    0.86727996    0.93667995    0.07290000
opls_145-42    C    0.39902018    0.88821010    0.93786992    -0.11460000
opls_145-43    C    0.43741002    0.91679012    0.85783092    -0.12830000
opls_700-44    C    0.44529998    0.95110005    0.66707934    0.06310000
opls_145-45    C    0.41401005    0.95486024    0.53688912    -0.11720000
opls_145-46    C    0.37592005    0.92602008    0.61288900    -0.11630000
opls_700-47    C    0.36761008    0.89205003    0.80905057    0.05880000
opls_716-48    C    0.49734996    0.02192010    0.63093078    0.10700000
opls_716-49    C    0.53521003    0.05029991    0.57824981    0.10510000
opls_700-50    C    0.56427993    0.04188997    0.45469912    0.02220000
opls_145-51    C    0.55277004    0.00221008    0.41609995    -0.12830000
opls_145-52    C    0.51457005    0.97324013    0.49587043    -0.12550000
opls_700-53    C    0.48589013    0.98244012    0.59801012    0.00230000
opls_145-54    C    0.63647004    0.06635013    0.33612030    -0.12570000
opls_145-55    C    0.67367003    0.09606996    0.22864128    -0.12650000
opls_700-56    C    0.68100989    0.13401990    0.15367874    0.06070000
opls_145-57    C    0.64922992    0.14011995    0.17551938    -0.18950000
opls_145-58    C    0.61197997    0.11010011    0.24383109    -0.16900000
opls_700-59    C    0.60465992    0.07298008    0.34584923    0.06880000
opls_142-60    C    0.72189995    0.16428999    0.05512027    0.08710000
opls_145-61    C    0.74871984    0.26643993    0.19929902    -0.16520000
opls_523-62    C    0.73638003    0.29392000    0.22717997    -0.13120000
opls_700-63    C    0.69929003    0.28436995    0.08815964    0.00120000
opls_523-64    C    0.67726000    0.24929995    0.89083920    -0.11460000
opls_145-65    C    0.69168990    0.22405004    0.83989090    -0.16560000
opls_145-66    C    0.72486002    0.23010993    0.03108058    0.19770000
opls_531-67    C    0.68262999    0.30993005    0.14249979    0.35810000
opls_531-68    C    0.30203014    0.62886018    0.89646966    0.33290000
opls_523-69    C    0.23342004    0.58233996    0.72240029    -0.12930000
opls_145-70    C    0.20070998    0.54521003    0.74041098    -0.17930000
opls_145-71    C    0.20303018    0.51514014    0.92299104    0.19930000
opls_145-72    C    0.23906005    0.52164002    0.05447017    -0.16420000
opls_523-73    C    0.27206004    0.55835994    0.03052093    -0.12310000
opls_700-74    C    0.26895008    0.58922016    0.87882077    0.01330000
opls_142-75    C    0.13272005    0.45948017    0.93667995    0.07290000
opls_145-76    C    0.11179017    0.51081019    0.93786992    -0.11460000
opls_145-77    C    0.08321008    0.52062009    0.85783092    -0.12830000
opls_700-78    C    0.04890013    0.49420010    0.66707934    0.06310000
opls_145-79    C    0.04513999    0.45915018    0.53688912    -0.11720000
opls_145-80    C    0.07398010    0.44990015    0.61288900    -0.11630000
opls_700-81    C    0.10795009    0.47556006    0.80905057    0.05880000
opls_716-82    C    0.97808005    0.47542999    0.63093078    0.10700000
opls_716-83    C    0.94969987    0.48490991    0.57824981    0.10510000
opls_700-84    C    0.95811004    0.52239019    0.45469912    0.02220000
opls_145-85    C    0.99779003    0.55056020    0.41609995    -0.12830000
opls_145-86    C    0.02675999    0.54132995    0.49587043    -0.12550000
opls_700-87    C    0.01756012    0.50345014    0.59801012    0.00230000
opls_145-88    C    0.93365006    0.57012007    0.33612030    -0.12560000
opls_145-89    C    0.90392993    0.57760000    0.22864128    -0.12440000
opls_700-90    C    0.86597994    0.54699003    0.15367874    0.06070000
opls_145-91    C    0.85987985    0.50910992    0.17551938    -0.18950000
opls_145-92    C    0.88990010    0.50187995    0.24383109    -0.16900000
opls_700-93    C    0.92702004    0.53168009    0.34584923    0.06880000
opls_142-94    C    0.83570999    0.55761005    0.05512027    0.08710000
opls_145-95    C    0.73355988    0.48227993    0.19929902    -0.16520000
opls_523-96    C    0.70607994    0.44246008    0.22717997    -0.13120000
opls_700-97    C    0.71563007    0.41492006    0.08815964    0.00120000
opls_523-98    C    0.75070003    0.42795997    0.89083920    -0.11450000
opls_145-99    C    0.77595018    0.46764015    0.83989090    -0.16560000
opls_145-100    C    0.76989001    0.49475008    0.03108058    0.19770000
opls_531-101    C    0.69007017    0.37270011    0.14249979    0.35820000
opls_750-102    N    0.52300012    0.69340005    0.98494022    -0.33550000
opls_750-103    N    0.46436011    0.26224005    0.02773962    -0.32770000
opls_750-104    N    0.56223992    0.52599994    0.72301083    -0.35210000
opls_750-105    N    0.54563002    0.45966000    0.63788123    -0.34990000
opls_520-106    N    0.29525994    0.65888003    0.90684870    -0.40980000
opls_520-107    N    0.65084016    0.35674010    0.13833065    -0.45290000
opls_750-108    N    0.30660001    0.82960006    0.98494022    -0.33540000
opls_750-109    N    0.73775990    0.20212005    0.02773962    -0.32760000
opls_750-110    N    0.47400009    0.03624008    0.72301083    -0.35210000
opls_750-111    N    0.54033991    0.08596993    0.63788123    -0.34980000
opls_520-112    N    0.34112002    0.63637998    0.90684870    -0.40980000
opls_520-113    N    0.64326014    0.29410012    0.13833065    -0.45280000
opls_750-114    N    0.17040001    0.47700018    0.98494022    -0.33550000
opls_750-115    N    0.79788013    0.53564020    0.02773962    -0.32780000
opls_750-116    N    0.96375999    0.43775998    0.72301083    -0.35200000
opls_750-117    N    0.91403007    0.45437007    0.63788123    -0.34980000
opls_520-118    N    0.36362004    0.70473999    0.90684870    -0.40980000
opls_520-119    N    0.70590009    0.34916007    0.13833065    -0.45290000
opls_202-120    S    0.58672993    0.50135995    0.74690918    0.44670000
opls_202-121    S    0.49863986    0.08536991    0.74690918    0.44680000
opls_202-122    S    0.91462996    0.41327014    0.74690918    0.44670000
opls_526-123    H    0.39446003    0.62589993    0.57800955    0.10830000
opls_146-124    H    0.45996003    0.63462007    0.60050878    0.24410000
opls_146-125    H    0.50179009    0.74238002    0.19306086    0.12540000
opls_526-126    H    0.43660000    0.73594999    0.14872099    0.11930000
opls_144-127    H    0.57153998    0.68836997    0.99418864    0.10800000
opls_146-128    H    0.47012997    0.60566002    0.11842901    0.09740000
opls_146-129    H    0.45210993    0.53902996    0.96395037    0.11630000
opls_146-130    H    0.56081993    0.58102002    0.36819017    0.11570000
opls_146-131    H    0.57773001    0.64743009    0.51377936    0.12330000
opls_146-132    H    0.42046002    0.42779003    0.30717940    0.11700000
opls_146-133    H    0.43606994    0.49289006    0.46320981    0.12270000
opls_146-134    H    0.40539001    0.36685991    0.41422878    0.12170000
opls_146-135    H    0.39235004    0.30295994    0.21565901    0.11780000
opls_146-136    H    0.51648015    0.34915017    0.15515984    0.25010000
opls_146-137    H    0.52804994    0.41068992    0.21911869    0.10200000
opls_144-138    H    0.41146995    0.25786994    0.02424037    0.10500000
opls_146-139    H    0.49632992    0.22419990    0.32632070    0.11610000
opls_526-140    H    0.56668007    0.24567012    0.37925040    0.10820000
opls_526-141    H    0.59293992    0.34998008    0.75900958    0.11400000
opls_146-142    H    0.52240003    0.32335989    0.66071116    0.10900000
opls_526-143    H    0.37409994    0.76855994    0.57800955    0.10830000
opls_146-144    H    0.36538004    0.82533994    0.60050878    0.24420000
opls_146-145    H    0.25761996    0.75941001    0.19306086    0.12540000
opls_526-146    H    0.26405005    0.70065010    0.14872099    0.11930000
opls_144-147    H    0.31163012    0.88317013    0.99418864    0.10800000
opls_146-148    H    0.39434018    0.86447015    0.11842901    0.09740000
opls_146-149    H    0.46097000    0.91307998    0.96395037    0.11630000
opls_146-150    H    0.41898010    0.97980025    0.36819017    0.11570000
opls_146-151    H    0.35257010    0.93029998    0.51377936    0.12330000
opls_146-152    H    0.57220993    0.99266993    0.30717940    0.11700000
opls_146-153    H    0.50711006    0.94318014    0.46320981    0.12260000
opls_146-154    H    0.63313989    0.03852989    0.41422878    0.12170000
opls_146-155    H    0.69703989    0.08938996    0.21565901    0.11780000
opls_146-156    H    0.65085003    0.16732998    0.15515984    0.25000000
opls_146-157    H    0.58931009    0.11736006    0.21911869    0.10190000
opls_144-158    H    0.74213009    0.15360013    0.02424037    0.10510000
opls_146-159    H    0.77580003    0.27212997    0.32632070    0.11610000
opls_526-160    H    0.75433017    0.32101014    0.37925040    0.10840000
opls_526-161    H    0.65001999    0.24296012    0.75900958    0.11400000
opls_146-162    H    0.67663983    0.19903990    0.66071116    0.10900000
opls_526-163    H    0.23144003    0.60554013    0.57800955    0.10830000
opls_146-164    H    0.17465993    0.54003999    0.60050878    0.24410000
opls_146-165    H    0.24058995    0.49820997    0.19306086    0.12550000
opls_526-166    H    0.29935009    0.56340020    0.14872099    0.11930000
opls_144-167    H    0.11683004    0.42846019    0.99418864    0.10800000
opls_146-168    H    0.13553000    0.52987013    0.11842901    0.09740000
opls_146-169    H    0.08692006    0.54789006    0.96395037    0.12070000
opls_146-170    H    0.02020012    0.43918002    0.36819017    0.11570000
opls_146-171    H    0.06969989    0.42226993    0.51377936    0.12330000
opls_146-172    H    0.00733005    0.57954004    0.30717940    0.11700000
opls_146-173    H    0.05682014    0.56393010    0.46320981    0.12250000
opls_146-174    H    0.96147010    0.59461020    0.41422878    0.12180000
opls_146-175    H    0.91061006    0.60765011    0.21565901    0.11780000
opls_146-176    H    0.83266996    0.48352014    0.15515984    0.25000000
opls_146-177    H    0.88263997    0.47195002    0.21911869    0.10200000
opls_144-178    H    0.84639996    0.58852993    0.02424037    0.10500000
opls_146-179    H    0.72787005    0.50367013    0.32632070    0.11610000
opls_526-180    H    0.67898991    0.43332004    0.37925040    0.10840000
opls_526-181    H    0.75703999    0.40706009    0.75900958    0.11400000
opls_146-182    H    0.80096000    0.47759991    0.66071116    0.10900000
