#======================================================================
# Crystal Data Generated By AuToFF
#----------------------------------------------------------------------

data_AuToFF_phase_1

_cell_length_a                         51.6138
_cell_length_b                         51.6138
_cell_length_c                         3.6737
_cell_angle_alpha                      90.00
_cell_angle_beta                       90.00
_cell_angle_gamma                      120.00
_symmetry_space_group_name_H-M_alt     'P 1'
_symmetry_space_group_IT_number        1

loop_
_space_group_symop_operation_xyz
   'x, y, z'

loop_
   _atom_site_label
   _atom_site_type_symbol
   _atom_site_fract_x
   _atom_site_fract_y
   _atom_site_fract_z
   _atom_site_charge
opls_145-0    C    0.62282003    0.26995991    0.27282032    0.08860000
opls_145-1    C    0.59641014    0.25986009    0.45552985    -0.20730000
opls_145-2    C    0.57581009    0.22933001    0.48365136    -0.21560000
opls_145-3    C    0.58139994    0.20808003    0.33307020    0.20100000
opls_145-4    C    0.60741999    0.21811004    0.14705066    -0.21530000
opls_145-5    C    0.62788004    0.24866003    0.11573073    -0.20710000
opls_142-6    C    0.53813005    0.16279006    0.54827014    0.10440000
opls_145-7    C    0.52059988    0.12982993    0.56195117    0.05750000
opls_523-8    C    0.49505011    0.11587007    0.75935977    -0.20700000
opls_522-9    C    0.47887999    0.08473997    0.78741868    -0.21460000
opls_521-10    C    0.48719000    0.06673011    0.61027030    0.16650000
opls_522-11    C    0.51197010    0.08084009    0.40041920    -0.21480000
opls_523-12    C    0.52903993    0.11201002    0.38340910    -0.20740000
opls_521-13    C    0.43783001    0.01833000    0.59122955    0.10480000
opls_700-14    C    0.42071996    0.98729006    0.65443014    -0.06410000
opls_280-15    C    0.43592003    0.97073997    0.74632115    0.27600000
opls_700-16    C    0.46874993    0.98587995    0.73296132    -0.07360000
opls_521-17    C    0.48537992    0.01721990    0.70437978    0.12150000
opls_522-18    C    0.48331001    0.96904999    0.73973923    -0.22520000
opls_522-19    C    0.42263004    0.03285990    0.47210986    -0.18310000
opls_523-20    C    0.39165991    0.01735995    0.43008956    -0.10750000
opls_145-21    C    0.37505998    0.98703994    0.50390887    -0.14910000
opls_523-22    C    0.38945991    0.97199996    0.61463103    -0.14690000
opls_145-23    C    0.67604009    0.31219006    0.25266081    -0.18930000
opls_700-24    C    0.69752992    0.34281993    0.25431037    0.06310000
opls_145-25    C    0.73004008    0.35286001    0.27282032    0.08860000
opls_145-26    C    0.74014007    0.33654997    0.45552985    -0.20730000
opls_145-27    C    0.77066994    0.34647998    0.48365136    -0.21560000
opls_145-28    C    0.79192005    0.37332004    0.33307020    0.20100000
opls_145-29    C    0.78188997    0.38930993    0.14705066    -0.21530000
opls_145-30    C    0.75133998    0.37921996    0.11573073    -0.20710000
opls_142-31    C    0.83721004    0.37534000    0.54827014    0.10440000
opls_145-32    C    0.87017000    0.39076992    0.56195117    0.05750000
opls_523-33    C    0.88412998    0.37917992    0.75935977    -0.20700000
opls_522-34    C    0.91526011    0.39414003    0.78741868    -0.21460000
opls_521-35    C    0.93326993    0.42045994    0.61027030    0.16650000
opls_522-36    C    0.91915997    0.43113001    0.40041920    -0.21480000
opls_523-37    C    0.88799011    0.41703010    0.38340910    -0.20740000
opls_521-38    C    0.98166989    0.41949996    0.59122955    0.10480000
opls_700-39    C    0.01271010    0.43343007    0.65443014    -0.06410000
opls_280-40    C    0.02926012    0.46518010    0.74632115    0.27600000
opls_700-41    C    0.01412003    0.48287003    0.73296132    -0.07360000
opls_521-42    C    0.98277998    0.46816004    0.70437978    0.12150000
opls_522-43    C    0.03095003    0.51426010    0.73973923    -0.22520000
opls_522-44    C    0.96714015    0.38977012    0.47210986    -0.18310000
opls_523-45    C    0.98263993    0.37429993    0.43008956    -0.10750000
opls_145-46    C    0.01295995    0.38801996    0.50390887    -0.14910000
opls_523-47    C    0.02800008    0.41746009    0.61463103    -0.14690000
opls_145-48    C    0.68781005    0.36385000    0.25266081    -0.18930000
opls_700-49    C    0.65717994    0.35470994    0.25431037    0.06310000
opls_145-50    C    0.64714008    0.37718009    0.27282032    0.08860000
opls_145-51    C    0.66344999    0.40358993    0.45552985    -0.20730000
opls_145-52    C    0.65351997    0.42419001    0.48365136    -0.21560000
opls_145-53    C    0.62668001    0.41859994    0.33307020    0.20100000
opls_145-54    C    0.61069004    0.39258003    0.14705066    -0.21530000
opls_145-55    C    0.62077998    0.37212000    0.11573073    -0.20710000
opls_142-56    C    0.62465991    0.46186994    0.54827014    0.10440000
opls_145-57    C    0.60923001    0.47939992    0.56195117    0.05750000
opls_523-58    C    0.62082010    0.50495001    0.75935977    -0.20700000
opls_522-59    C    0.60586010    0.52112000    0.78741868    -0.21460000
opls_521-60    C    0.57954006    0.51280995    0.61027030    0.16650000
opls_522-61    C    0.56887004    0.48803012    0.40041920    -0.21480000
opls_523-62    C    0.58297007    0.47096011    0.38340910    -0.20740000
opls_521-63    C    0.58050010    0.56217004    0.59122955    0.10480000
opls_700-64    C    0.56657006    0.57928010    0.65443014    -0.06410000
opls_280-65    C    0.53482004    0.56407993    0.74632115    0.27600000
opls_700-66    C    0.51713003    0.53125001    0.73296132    -0.07360000
opls_521-67    C    0.53184010    0.51462006    0.70437978    0.12150000
opls_522-68    C    0.48574007    0.51669013    0.73973923    -0.22520000
opls_522-69    C    0.61023000    0.57736998    0.47210986    -0.18310000
opls_523-70    C    0.62570016    0.60834012    0.43008956    -0.10750000
opls_145-71    C    0.61198006    0.62494010    0.50390887    -0.14910000
opls_523-72    C    0.58254001    0.61053996    0.61463103    -0.14690000
opls_145-73    C    0.63615006    0.32395994    0.25266081    -0.18930000
opls_700-74    C    0.64529003    0.30246991    0.25431037    0.06310000
opls_145-75    C    0.37717997    0.73004009    0.27282032    0.08860000
opls_145-76    C    0.40358998    0.74014013    0.45552985    -0.20730000
opls_145-77    C    0.42418991    0.77066999    0.48365136    -0.21560000
opls_145-78    C    0.41860006    0.79191997    0.33307020    0.20100000
opls_145-79    C    0.39258001    0.78188996    0.14705066    -0.21530000
opls_145-80    C    0.37211996    0.75133997    0.11573073    -0.20710000
opls_142-81    C    0.46186995    0.83720994    0.54827014    0.10440000
opls_145-82    C    0.47940012    0.87017007    0.56195117    0.05750000
opls_523-83    C    0.50494989    0.88412993    0.75935977    -0.20700000
opls_522-84    C    0.52112001    0.91526003    0.78741868    -0.21460000
opls_521-85    C    0.51281011    0.93327011    0.61027030    0.16650000
opls_522-86    C    0.48803001    0.91916013    0.40041920    -0.21480000
opls_523-87    C    0.47096007    0.88798998    0.38340910    -0.20740000
opls_521-88    C    0.56216999    0.98167000    0.59122955    0.10480000
opls_700-89    C    0.57928004    0.01270994    0.65443014    -0.06410000
opls_280-90    C    0.56407997    0.02926003    0.74632115    0.27600000
opls_700-91    C    0.53125007    0.01412005    0.73296132    -0.07360000
opls_521-92    C    0.51462008    0.98278010    0.70437978    0.12150000
opls_522-93    C    0.51668999    0.03095001    0.73973923    -0.22520000
opls_522-94    C    0.57736996    0.96714010    0.47210986    -0.18310000
opls_523-95    C    0.60834009    0.98264005    0.43008956    -0.10750000
opls_145-96    C    0.62494002    0.01296006    0.50390887    -0.14910000
opls_523-97    C    0.61054009    0.02800004    0.61463103    -0.14690000
opls_145-98    C    0.32395991    0.68780994    0.25266081    -0.18930000
opls_700-99    C    0.30247008    0.65718007    0.25431037    0.06310000
opls_145-100    C    0.26995992    0.64713999    0.27282032    0.08860000
opls_145-101    C    0.25985993    0.66345003    0.45552985    -0.20730000
opls_145-102    C    0.22933006    0.65352002    0.48365136    -0.21560000
opls_145-103    C    0.20807995    0.62667996    0.33307020    0.20100000
opls_145-104    C    0.21811003    0.61069007    0.14705066    -0.21530000
opls_145-105    C    0.24866002    0.62078004    0.11573073    -0.20710000
opls_142-106    C    0.16278996    0.62466000    0.54827014    0.10440000
opls_145-107    C    0.12983000    0.60923008    0.56195117    0.05750000
opls_523-108    C    0.11587002    0.62082008    0.75935977    -0.20700000
opls_522-109    C    0.08473989    0.60585997    0.78741868    -0.21460000
opls_521-110    C    0.06673007    0.57954006    0.61027030    0.16650000
opls_522-111    C    0.08084003    0.56886999    0.40041920    -0.21480000
opls_523-112    C    0.11201000    0.58297012    0.38340910    -0.20740000
opls_521-113    C    0.01833011    0.58050004    0.59122955    0.10480000
opls_700-114    C    0.98728990    0.56656993    0.65443014    -0.06410000
opls_280-115    C    0.97073999    0.53482013    0.74632115    0.27600000
opls_700-116    C    0.98587997    0.51712997    0.73296132    -0.07360000
opls_521-117    C    0.01722002    0.53183996    0.70437978    0.12150000
opls_522-118    C    0.96905008    0.48574013    0.73973923    -0.22520000
opls_522-119    C    0.03285996    0.61023010    0.47210986    -0.18310000
opls_523-120    C    0.01736007    0.62570007    0.43008956    -0.10750000
opls_145-121    C    0.98704005    0.61198004    0.50390887    -0.14910000
opls_523-122    C    0.97200003    0.58254014    0.61463103    -0.14690000
opls_145-123    C    0.31218995    0.63615000    0.25266081    -0.18930000
opls_700-124    C    0.34282006    0.64529006    0.25431037    0.06310000
opls_145-125    C    0.35286003    0.62282013    0.27282032    0.08860000
opls_145-126    C    0.33655001    0.59641007    0.45552985    -0.20730000
opls_145-127    C    0.34648003    0.57580999    0.48365136    -0.21560000
opls_145-128    C    0.37331999    0.58140006    0.33307020    0.20100000
opls_145-129    C    0.38930996    0.60741997    0.14705066    -0.21530000
opls_145-130    C    0.37922002    0.62788000    0.11573073    -0.20710000
opls_142-131    C    0.37534009    0.53813006    0.54827014    0.10440000
opls_145-132    C    0.39076999    0.52060008    0.56195117    0.05750000
opls_523-133    C    0.37917990    0.49504999    0.75935977    -0.20700000
opls_522-134    C    0.39413990    0.47888000    0.78741868    -0.21460000
opls_521-135    C    0.42045994    0.48719005    0.61027030    0.16650000
opls_522-136    C    0.43113007    0.51197010    0.40041920    -0.21480000
opls_523-137    C    0.41703004    0.52904011    0.38340910    -0.20740000
opls_521-138    C    0.41949990    0.43782996    0.59122955    0.10480000
opls_700-139    C    0.43343006    0.42072013    0.65443014    -0.06410000
opls_280-140    C    0.46517996    0.43592007    0.74632115    0.27600000
opls_700-141    C    0.48286997    0.46874999    0.73296132    -0.07360000
opls_521-142    C    0.46815990    0.48537994    0.70437978    0.12150000
opls_522-143    C    0.51426005    0.48331009    0.73973923    -0.22520000
opls_522-144    C    0.38977000    0.42263002    0.47210986    -0.18310000
opls_523-145    C    0.37429996    0.39166010    0.43008956    -0.10750000
opls_145-146    C    0.38802005    0.37506012    0.50390887    -0.14910000
opls_523-147    C    0.41745999    0.38946004    0.61463103    -0.14690000
opls_145-148    C    0.36384994    0.67604006    0.25266081    -0.18930000
opls_700-149    C    0.35470997    0.69753009    0.25431037    0.06310000
opls_750-150    N    0.56179996    0.17631993    0.36522035    -0.31880000
opls_239-151    N    0.47024005    0.03431005    0.64049051    -0.16830000
opls_750-152    N    0.82368002    0.38548008    0.36522035    -0.31890000
opls_239-153    N    0.96568998    0.43592991    0.64049051    -0.16830000
opls_750-154    N    0.61452002    0.43819999    0.36522035    -0.31890000
opls_239-155    N    0.56406997    0.52976004    0.64049051    -0.16830000
opls_750-156    N    0.43820004    0.82368007    0.36522035    -0.31890000
opls_239-157    N    0.52975995    0.96568995    0.64049051    -0.16830000
opls_750-158    N    0.17631998    0.61451992    0.36522035    -0.31890000
opls_239-159    N    0.03431002    0.56407009    0.64049051    -0.16830000
opls_750-160    N    0.38547998    0.56180001    0.36522035    -0.31890000
opls_239-161    N    0.43593003    0.47023996    0.64049051    -0.16830000
opls_281-162    O    0.42141006    0.94452006    0.82780031    -0.38170000
opls_281-163    O    0.05547999    0.47689001    0.82780031    -0.38170000
opls_281-164    O    0.52310995    0.57858992    0.82780031    -0.38170000
opls_281-165    O    0.57858994    0.05547994    0.82780031    -0.38170000
opls_281-166    O    0.94452001    0.52310999    0.82780031    -0.38170000
opls_281-167    O    0.47689005    0.42141008    0.82780031    -0.38170000
opls_146-168    H    0.59198993    0.27546005    0.58637069    0.22450000
opls_146-169    H    0.55602004    0.22283991    0.62818956    0.22470000
opls_146-170    H    0.61188005    0.20210001    0.02573972    0.22560000
opls_146-171    H    0.64750004    0.25553001    0.96538912    0.22470000
opls_144-172    H    0.53108999    0.17522997    0.70032120    0.11000000
opls_526-173    H    0.48801009    0.12909009    0.89921061    0.22460000
opls_525-174    H    0.45976990    0.07460996    0.94718132    0.22470000
opls_525-175    H    0.51835997    0.06766011    0.25300106    0.22470000
opls_526-176    H    0.54843992    0.12207000    0.22520075    0.22470000
opls_525-177    H    0.46965992    0.94513999    0.76229959    0.11230000
opls_525-178    H    0.43426998    0.05622000    0.40915970    0.08200000
opls_526-179    H    0.38049000    0.02894011    0.33942891    0.08200000
opls_617-180    H    0.35104013    0.97508013    0.47114898    0.10800000
opls_526-181    H    0.37617006    0.94825013    0.66366061    0.10970000
opls_146-182    H    0.68330006    0.29583998    0.25606881    0.11070000
opls_146-183    H    0.72453991    0.31653000    0.58637069    0.22450000
opls_146-184    H    0.77716008    0.33318009    0.62818956    0.22470000
opls_146-185    H    0.79790002    0.40978003    0.02573972    0.22560000
opls_146-186    H    0.74447007    0.39196995    0.96538912    0.22470000
opls_144-187    H    0.82477003    0.35586008    0.70032120    0.11000000
opls_526-188    H    0.87091002    0.35892012    0.89921061    0.22460000
opls_525-189    H    0.92538999    0.38515993    0.94718132    0.22470000
opls_525-190    H    0.93234003    0.45070008    0.25300106    0.22470000
opls_526-191    H    0.87793005    0.42636993    0.22520075    0.22470000
opls_525-192    H    0.05486009    0.52452009    0.76229959    0.11230000
opls_525-193    H    0.94377988    0.37804991    0.40915970    0.08200000
opls_526-194    H    0.97105993    0.35154991    0.33942891    0.08200000
opls_617-195    H    0.02491989    0.37595992    0.47114898    0.10800000
opls_526-196    H    0.05175013    0.42792009    0.66366061    0.10970000
opls_146-197    H    0.70415996    0.38745999    0.25606881    0.11070000
opls_146-198    H    0.68346997    0.40800996    0.58637069    0.22450000
opls_146-199    H    0.66682007    0.44398000    0.62818956    0.22470000
opls_146-200    H    0.59021992    0.38811997    0.02573972    0.22560000
opls_146-201    H    0.60803009    0.35250004    0.96538912    0.22470000
opls_144-202    H    0.64413998    0.46890995    0.70032120    0.11000000
opls_526-203    H    0.64108000    0.51199001    0.89921061    0.22460000
opls_525-204    H    0.61484011    0.54023011    0.94718132    0.22470000
opls_525-205    H    0.54930011    0.48164002    0.25300106    0.22470000
opls_526-206    H    0.57363002    0.45156006    0.22520075    0.22470000
opls_525-207    H    0.47548000    0.53033992    0.76229959    0.11230000
opls_525-208    H    0.62195013    0.56573009    0.40915970    0.08200000
opls_526-209    H    0.64845007    0.61950998    0.33942891    0.08200000
opls_617-210    H    0.62403998    0.64895995    0.47114898    0.10800000
opls_526-211    H    0.57207992    0.62383000    0.66366061    0.10970000
opls_146-212    H    0.61253998    0.31670002    0.25606881    0.11070000
opls_146-213    H    0.40801007    0.72453995    0.58637069    0.22450000
opls_146-214    H    0.44397996    0.77716009    0.62818956    0.22470000
opls_146-215    H    0.38811995    0.79789999    0.02573972    0.22560000
opls_146-216    H    0.35249996    0.74446999    0.96538912    0.22470000
opls_144-217    H    0.46891001    0.82477003    0.70032120    0.11000000
opls_526-218    H    0.51199002    0.87091013    0.89921061    0.22460000
opls_525-219    H    0.54023010    0.92539004    0.94718132    0.22470000
opls_525-220    H    0.48164014    0.93234011    0.25300106    0.22470000
opls_526-221    H    0.45156008    0.87793000    0.22520075    0.22470000
opls_525-222    H    0.53034008    0.05486001    0.76229959    0.11230000
opls_525-223    H    0.56573002    0.94378000    0.40915970    0.08200000
opls_526-224    H    0.61951012    0.97106011    0.33942891    0.08200000
opls_617-225    H    0.64895998    0.02492010    0.47114898    0.10800000
opls_526-226    H    0.62383005    0.05175009    0.66366061    0.10970000
opls_146-227    H    0.31669994    0.70416002    0.25606881    0.11070000
opls_146-228    H    0.27546009    0.68347000    0.58637069    0.22450000
opls_146-229    H    0.22284003    0.66682014    0.62818956    0.22470000
opls_146-230    H    0.20209998    0.59021997    0.02573972    0.22560000
opls_146-231    H    0.25552993    0.60803005    0.96538912    0.22470000
opls_144-232    H    0.17522997    0.64413992    0.70032120    0.11000000
opls_526-233    H    0.12909009    0.64108011    0.89921061    0.22460000
opls_525-234    H    0.07461001    0.61484007    0.94718132    0.22470000
opls_525-235    H    0.06765997    0.54929992    0.25300106    0.22470000
opls_526-236    H    0.12206995    0.57363007    0.22520075    0.22470000
opls_525-237    H    0.94513991    0.47547991    0.76229959    0.11230000
opls_525-238    H    0.05622012    0.62195009    0.40915970    0.08200000
opls_526-239    H    0.02894007    0.64845009    0.33942891    0.08200000
opls_617-240    H    0.97508011    0.62404008    0.47114898    0.10800000
opls_526-241    H    0.94824987    0.57207991    0.66366061    0.11260000
opls_146-242    H    0.29584004    0.61254001    0.25606881    0.11070000
opls_146-243    H    0.31653003    0.59199004    0.58637069    0.22450000
opls_146-244    H    0.33317993    0.55602000    0.62818956    0.22470000
opls_146-245    H    0.40978008    0.61188003    0.02573972    0.22560000
opls_146-246    H    0.39196991    0.64749996    0.96538912    0.22470000
opls_144-247    H    0.35586002    0.53109005    0.70032120    0.11000000
opls_526-248    H    0.35892000    0.48800999    0.89921061    0.22460000
opls_525-249    H    0.38516000    0.45977011    0.94718132    0.22470000
opls_525-250    H    0.45069989    0.51835998    0.25300106    0.22470000
opls_526-251    H    0.42636998    0.54843994    0.22520075    0.22470000
opls_525-252    H    0.52452000    0.46966008    0.76229959    0.11230000
opls_525-253    H    0.37804987    0.43426991    0.40915970    0.08200000
opls_526-254    H    0.35154993    0.38049002    0.33942891    0.08200000
opls_617-255    H    0.37596002    0.35104005    0.47114898    0.10800000
opls_526-256    H    0.42792008    0.37617000    0.66366061    0.10970000
opls_146-257    H    0.38746002    0.68329998    0.25606881    0.11070000
