#======================================================================
# Crystal Data Generated By AuToFF
#----------------------------------------------------------------------

data_AuToFF_phase_1

_cell_length_a                         37.1931
_cell_length_b                         37.2629
_cell_length_c                         4.5443
_cell_angle_alpha                      84.00
_cell_angle_beta                       81.00
_cell_angle_gamma                      59.00
_symmetry_space_group_name_H-M_alt     'P 1'
_symmetry_space_group_IT_number        1

loop_
_space_group_symop_operation_xyz
   'x, y, z'

loop_
   _atom_site_label
   _atom_site_type_symbol
   _atom_site_fract_x
   _atom_site_fract_y
   _atom_site_fract_z
   _atom_site_charge
opls_145-0    C    0.95019979    0.06150012    0.20069987    -0.13020000
opls_145-1    C    0.92919988    0.04079998    0.16160078    -0.13030000
opls_700-2    C    0.89569997    0.04429992    0.37700014    0.06380000
opls_145-3    C    0.88419980    0.06930009    0.62390032    -0.11900000
opls_145-4    C    0.90529996    0.08989984    0.66360121    -0.12670000
opls_700-5    C    0.93819982    0.08729999    0.44490087    0.06460000
opls_700-6    C    0.95650008    0.11399986    0.46679966    -0.00220000
opls_700-7    C    0.87429982    0.02110002    0.34360032    -0.00230000
opls_142-8    C    0.98209986    0.11860007    0.22870134    -0.10220000
opls_142-9    C    0.84600005    0.01789989    0.56690107    -0.05250000
opls_423-10    C    0.94159981    0.13890000    0.72090136    0.22900000
opls_423-11    C    0.88570021    0.99699995    0.08819917    0.23640000
opls_700-12    C    0.00349989    0.14280003    0.20540059    0.10990000
opls_145-13    C    0.99590009    0.17230001    0.41319945    -0.13100000
opls_145-14    C    0.03349995    0.13619983    0.95239995    -0.13310000
opls_145-15    C    0.01790001    0.19359999    0.37089969    -0.13110000
opls_145-16    C    0.05569992    0.15719998    0.91220203    -0.12710000
opls_700-17    C    0.04820000    0.18640004    0.12109973    0.06420000
opls_700-18    C    0.82209998    0.99889996    0.49170075    0.09560000
opls_145-19    C    0.79780001    0.01770011    0.25680088    -0.12760000
opls_145-20    C    0.82359988    0.96299993    0.63590064    -0.13280000
opls_145-21    C    0.77820000    0.99979999    0.14390122    -0.12840000
opls_145-22    C    0.80450013    0.94449986    0.51830025    -0.11970000
opls_700-23    C    0.78149984    0.96220007    0.27610079    0.07000000
opls_700-24    C    0.76459998    0.94150011    0.12909920    0.06340000
opls_145-25    C    0.78119987    0.89780006    0.15030034    -0.18010000
opls_145-26    C    0.73339981    0.96509998    0.93950140    -0.18090000
opls_700-27    C    0.77069985    0.87829997    0.96020105    0.06810000
opls_700-28    C    0.72019998    0.94659981    0.75909998    0.06380000
opls_145-29    C    0.74139999    0.90229982    0.75930058    -0.17210000
opls_700-30    C    0.79149986    0.83139987    0.96850141    0.06850000
opls_145-31    C    0.78320011    0.81030005    0.21720030    -0.13310000
opls_145-32    C    0.81979994    0.80759987    0.72590075    -0.13180000
opls_145-33    C    0.80250014    0.76659991    0.22519976    -0.12940000
opls_145-34    C    0.83970007    0.76399987    0.73470038    -0.12990000
opls_700-35    C    0.83179978    0.74250005    0.98509991    0.10880000
opls_700-36    C    0.68340007    0.97349991    0.59759949    0.06760000
opls_145-37    C    0.67330009    0.95950006    0.36639957    -0.14920000
opls_145-38    C    0.65410000    0.01510004    0.69750031    -0.13310000
opls_145-39    C    0.63450011    0.98439986    0.24969966    -0.13130000
opls_145-40    C    0.61609995    0.03980007    0.58010052    -0.12080000
opls_700-41    C    0.60339998    0.02329988    0.38080039    0.10400000
opls_700-42    C    0.07100002    0.20979991    0.07799980    0.06830000
opls_145-43    C    0.11479998    0.18920001    0.98000022    -0.17140000
opls_145-44    C    0.04869986    0.25300005    0.13700059    -0.17340000
opls_700-45    C    0.13639998    0.21109989    0.95060124    0.06800000
opls_700-46    C    0.06940004    0.27580011    0.08940054    0.06790000
opls_145-47    C    0.11330004    0.25450006    0.00039897    -0.17350000
opls_700-48    C    0.18339999    0.18939988    0.88140108    0.06330000
opls_145-49    C    0.20570002    0.19800013    0.05769912    -0.13340000
opls_145-50    C    0.20649990    0.16110008    0.64790095    -0.12950000
opls_145-51    C    0.24949978    0.17900004    0.99860026    -0.12950000
opls_145-52    C    0.25049999    0.14239990    0.58550111    -0.12940000
opls_700-53    C    0.27279996    0.15119988    0.76070032    0.10880000
opls_142-54    C    0.31899979    0.13340005    0.72540148    -0.05820000
opls_700-55    C    0.35040005    0.11069985    0.49729971    0.00350000
opls_423-56    C    0.34259986    0.09390001    0.26880119    0.23530000
opls_700-57    C    0.39499996    0.09919997    0.50590097    0.06670000
opls_145-58    C    0.42849984    0.07090010    0.29949962    -0.13500000
opls_145-59    C    0.40549994    0.11459999    0.72629972    -0.13020000
opls_145-60    C    0.47049995    0.05799989    0.32280037    -0.13300000
opls_145-61    C    0.44739988    0.10169992    0.74980107    -0.13480000
opls_700-62    C    0.48089990    0.07340002    0.54380092    0.06730000
opls_700-63    C    0.04579999    0.32229988    0.12019926    0.06790000
opls_145-64    C    0.01760007    0.34270001    0.37330020    -0.13310000
opls_145-65    C    0.05259996    0.34669984    0.88860037    -0.13200000
opls_145-66    C    0.99679995    0.38629982    0.39360087    -0.13480000
opls_145-67    C    0.03150007    0.39029989    0.90750131    -0.13270000
opls_700-68    C    0.00240016    0.41119984    0.15710067    0.10820000
opls_142-69    C    0.85530007    0.69639991    0.97190046    -0.07870000
opls_700-70    C    0.85970013    0.66679983    0.19480001    0.00290000
opls_423-71    C    0.83420000    0.67809997    0.47190157    0.23150000
opls_700-72    C    0.88860006    0.62100002    0.13819973    0.06740000
opls_145-73    C    0.88840010    0.59089983    0.35159978    -0.13480000
opls_145-74    C    0.91539994    0.60620000    0.86990003    -0.13220000
opls_145-75    C    0.91360001    0.54800005    0.29209972    -0.13310000
opls_145-76    C    0.94050003    0.56339985    0.81030190    -0.13310000
opls_700-77    C    0.94050013    0.53329996    0.02410092    0.06740000
opls_700-78    C    0.97039998    0.48769997    0.96520043    0.00430000
opls_700-79    C    0.52490000    0.06289984    0.56199975    -0.00390000
opls_423-80    C    0.53019997    0.08020009    0.80110107    0.23970000
opls_423-81    C    0.99540003    0.47789991    0.68610179    0.19420000
opls_142-82    C    0.97660012    0.45719982    0.18470094    -0.05890000
opls_142-83    C    0.55850007    0.04109997    0.34140041    -0.05010000
opls_146-84    H    0.97529979    0.05860015    0.02700070    0.10480000
opls_146-85    H    0.94109996    0.01879989    0.98080039    0.10590000
opls_146-86    H    0.85900005    0.07219993    0.79590108    0.10630000
opls_146-87    H    0.89329976    0.11190008    0.84459997    0.10260000
opls_146-88    H    0.97260009    0.17929981    0.60870156    0.10850000
opls_146-89    H    0.03949983    0.11389989    0.78630128    0.10550000
opls_146-90    H    0.01139998    0.21619996    0.53540025    0.10630000
opls_146-91    H    0.07849978    0.15149998    0.71350147    0.10060000
opls_146-92    H    0.79510009    0.04659985    0.15490076    0.10850000
opls_146-93    H    0.84560001    0.94589995    0.79810099    0.11450000
opls_146-94    H    0.75770002    0.01690000    0.97389977    0.11270000
opls_146-95    H    0.80969996    0.91430003    0.60930113    0.11190000
opls_144-96    H    0.83129993    0.03969994    0.75250025    0.07690000
opls_144-97    H    0.99530010    0.09529996    0.05469904    0.07890000
opls_146-98    H    0.80470000    0.87849998    0.30000111    0.11060000
opls_146-99    H    0.71889996    0.99889994    0.93140163    0.11510000
opls_146-100    H    0.73339989    0.88660003    0.61570026    0.11130000
opls_146-101    H    0.76060015    0.82829988    0.40579956    0.09370000
opls_146-102    H    0.82669993    0.82330002    0.52970100    0.11120000
opls_146-103    H    0.79439998    0.75169986    0.41970111    0.11810000
opls_146-104    H    0.86200005    0.74600004    0.54500006    0.08600000
opls_146-105    H    0.69450012    0.92750004    0.28860037    0.07130000
opls_146-106    H    0.66169986    0.02919982    0.85610101    0.11570000
opls_146-107    H    0.62570005    0.97049984    0.09700104    0.11300000
opls_146-108    H    0.59560002    0.07179988    0.65370050    0.10930000
opls_146-109    H    0.13229988    0.15559986    0.93880153    0.10730000
opls_146-110    H    0.01470002    0.26919990    0.20910053    0.10590000
opls_146-111    H    0.12980009    0.27179994    0.97050072    0.11260000
opls_146-112    H    0.18849982    0.21960012    0.24180049    0.07470000
opls_146-113    H    0.18979998    0.15419991    0.50820118    0.11120000
opls_146-114    H    0.26629973    0.18550008    0.14090114    0.10930000
opls_146-115    H    0.26729999    0.12030000    0.40499939    0.10380000
opls_144-116    H    0.32749987    0.14799995    0.87570182    0.10780000
opls_146-117    H    0.42179986    0.05650012    0.13640102    0.11430000
opls_146-118    H    0.38119988    0.13599998    0.89330109    0.06300000
opls_146-119    H    0.49529987    0.03660004    0.15710067    0.08210000
opls_146-120    H    0.45399978    0.11620000    0.91299997    0.11230000
opls_146-121    H    0.01289984    0.32439989    0.56040164    0.11140000
opls_146-122    H    0.07530011    0.33139981    0.69359976    0.06140000
opls_146-123    H    0.97469991    0.40169994    0.59130067    0.07890000
opls_146-124    H    0.03809998    0.40749991    0.72290067    0.09070000
opls_144-125    H    0.87910012    0.68479985    0.77619998    0.08930000
opls_146-126    H    0.86630002    0.60130003    0.55560063    0.10520000
opls_146-127    H    0.91640001    0.62789990    0.69570160    0.12070000
opls_146-128    H    0.91290005    0.52609981    0.46550022    0.11960000
opls_146-129    H    0.96260002    0.55310001    0.60610046    0.09270000
opls_144-130    H    0.95300005    0.46729987    0.38230043    0.08340000
opls_144-131    H    0.55399982    0.02400009    0.18409914    0.10530000
opls_753-132    N    0.93069995    0.15869995    0.93700059    -0.28950000
opls_753-133    N    0.89110002    0.97670000    0.88580089    -0.28960000
opls_753-134    N    0.33569995    0.08139994    0.07039930    -0.36640000
opls_753-135    N    0.81429995    0.68759980    0.70840178    -0.28960000
opls_753-136    N    0.01509996    0.46959998    0.44829992    -0.28950000
opls_753-137    N    0.53630008    0.09319997    0.00010030    -0.37120000
