#======================================================================
# Crystal Data Generated By AuToFF
#----------------------------------------------------------------------

data_AuToFF_phase_1

_cell_length_a                         29.4580
_cell_length_b                         29.4580
_cell_length_c                         7.5668
_cell_angle_alpha                      90.00
_cell_angle_beta                       90.00
_cell_angle_gamma                      120.00
_symmetry_space_group_name_H-M_alt     'P 1'
_symmetry_space_group_IT_number        1

loop_
_space_group_symop_operation_xyz
   'x, y, z'

loop_
   _atom_site_label
   _atom_site_type_symbol
   _atom_site_fract_x
   _atom_site_fract_y
   _atom_site_fract_z
   _atom_site_charge
opls_145-0    C    0.68054977    0.29203987    0.25852011    -0.08660000
opls_700-1    C    0.71348993    0.34612984    0.25218983    -0.00010000
opls_145-2    C    0.69179001    0.37842014    0.27154940    -0.08680000
opls_700-3    C    0.63778994    0.35721000    0.29645028    -0.00050000
opls_145-4    C    0.60542993    0.30312002    0.30227970    -0.08150000
opls_700-5    C    0.62643993    0.27022999    0.28249062    -0.00230000
opls_141-6    C    0.77067004    0.36894006    0.23802003    0.48290000
opls_141-7    C    0.61567009    0.39137005    0.32651980    0.49160000
opls_141-8    C    0.59242011    0.21350001    0.29775995    0.48930000
opls_142-9    C    0.07819001    0.48363985    0.35460961    0.10210000
opls_142-10    C    0.10290978    0.45309975    0.42480044    0.09700000
opls_142-11    C    0.06343000    0.31882007    0.38519982    0.09720000
opls_142-12    C    0.09394002    0.37711014    0.35546995    0.09690000
opls_142-13    C    0.95000995    0.21400998    0.18300999    0.10060000
opls_142-14    C    0.00287985    0.24410988    0.27339034    0.09720000
opls_142-15    C    0.95059994    0.40469978    0.32314056    0.10180000
opls_142-16    C    0.91115991    0.34829986    0.36070994    0.09670000
opls_142-17    C    0.87439000    0.26972982    0.24620976    0.09690000
opls_142-18    C    0.88256984    0.22713981    0.16944944    0.09720000
opls_142-19    C    0.10768004    0.60195999    0.46910980    0.06710000
opls_700-20    C    0.05218005    0.57063005    0.41709045    -0.03300000
opls_145-21    C    0.97483999    0.57282005    0.32120976    -0.12370000
opls_145-22    C    0.02800002    0.59834983    0.36183988    -0.08260000
opls_142-23    C    0.88816009    0.49513002    0.29627055    0.06630000
opls_700-24    C    0.94447992    0.51891979    0.33593990    -0.00240000
opls_166-25    C    0.96807989    0.48977986    0.38950944    0.11170000
opls_166-26    C    0.02237982    0.51553973    0.42699952    0.11280000
opls_142-27    C    0.40713011    0.91704996    0.43016995    0.10320000
opls_142-28    C    0.35135989    0.89471992    0.49444019    0.09780000
opls_142-29    C    0.22744977    0.84129984    0.34927975    0.10060000
opls_142-30    C    0.26829994    0.83588971    0.45552942    0.10170000
opls_142-31    C    0.24466005    0.96624996    0.44064994    0.09750000
opls_142-32    C    0.21609007    0.90760006    0.41841994    0.09720000
opls_142-33    C    0.49094993    0.07292981    0.58246947    0.10160000
opls_142-34    C    0.45245010    0.09179002    0.55082994    0.09750000
opls_142-35    C    0.37065996    0.06570989    0.47447005    0.10060000
opls_142-36    C    0.31464990    0.03647000    0.54193054    0.09720000
opls_142-37    C    0.49929983    0.88535979    0.59992996    -0.02740000
opls_700-38    C    0.52314008    0.94020982    0.54541021    -0.04590000
opls_145-39    C    0.60215012    0.01824010    0.45382064    -0.15960000
opls_145-40    C    0.57677987    0.96660000    0.50968970    -0.11340000
opls_142-41    C    0.60501006    0.09941995    0.37512951    -0.02710000
opls_700-42    C    0.57447988    0.04466007    0.43147962    -0.04570000
opls_166-43    C    0.52001005    0.01849998    0.46778030    0.11520000
opls_166-44    C    0.49440997    0.96629975    0.52314056    0.12080000
opls_142-45    C    0.49706987    0.38237994    0.50679019    0.06710000
opls_700-46    C    0.47336014    0.41389999    0.55903024    -0.04470000
opls_145-47    C    0.39402988    0.41204984    0.65529022    -0.12040000
opls_145-48    C    0.42126988    0.38634993    0.61436010    -0.11430000
opls_142-49    C    0.38584010    0.48979005    0.68059021    -0.02780000
opls_700-50    C    0.41817005    0.46597009    0.64105963    -0.00620000
opls_142-51    C    0.54129996    0.58001998    0.64735952    0.10140000
opls_142-52    C    0.55975988    0.63651006    0.60677037    0.09690000
opls_142-53    C    0.67820019    0.75642008    0.67454935    0.10060000
opls_142-54    C    0.63276984    0.71151972    0.57888936    0.09780000
opls_142-55    C    0.77973002    0.73203998    0.58872971    0.09720000
opls_142-56    C    0.75739002    0.76731992    0.62704049    0.09760000
opls_166-57    C    0.47117991    0.49503006    0.58786938    0.11290000
opls_166-58    C    0.49929007    0.46900991    0.54947005    0.10000000
opls_142-59    C    0.58729009    0.50070008    0.62064942    0.10230000
opls_142-60    C    0.64273008    0.53060987    0.54924010    0.09720000
opls_142-61    C    0.70179000    0.60698010    0.65516995    0.10060000
opls_142-62    C    0.75038995    0.64771996    0.55933023    0.09780000
opls_700-63    C    0.36059979    0.63829985    0.72380002    -0.00010000
opls_145-64    C    0.38195992    0.69236984    0.71822038    -0.08530000
opls_700-65    C    0.34964977    0.71399979    0.69470978    -0.00100000
opls_145-66    C    0.29555994    0.68096983    0.67457974    -0.08370000
opls_700-67    C    0.27361000    0.62689004    0.67955014    -0.00100000
opls_145-68    C    0.30640013    0.60585002    0.70407041    -0.08850000
opls_141-69    C    0.37247980    0.77068979    0.68029947    0.49280000
opls_141-70    C    0.21710982    0.59267982    0.64892953    0.47250000
opls_141-71    C    0.39499971    0.61569974    0.73773986    0.47890000
opls_145-72    C    0.68054977    0.29203987    0.75852011    -0.08660000
opls_700-73    C    0.71348993    0.34612984    0.75218983    -0.00010000
opls_145-74    C    0.69179001    0.37842014    0.77154940    -0.08680000
opls_700-75    C    0.63778994    0.35721000    0.79645028    -0.00050000
opls_145-76    C    0.60542993    0.30312002    0.80227970    -0.08150000
opls_700-77    C    0.62643993    0.27022999    0.78249062    -0.00230000
opls_141-78    C    0.77067004    0.36894006    0.73800946    0.48280000
opls_141-79    C    0.61567009    0.39137005    0.82651980    0.49160000
opls_141-80    C    0.59242011    0.21350001    0.79775995    0.48930000
opls_142-81    C    0.07819001    0.48363985    0.85460961    0.10210000
opls_142-82    C    0.10290978    0.45309975    0.92480044    0.09700000
opls_142-83    C    0.06343000    0.31882007    0.88519982    0.09720000
opls_142-84    C    0.09394002    0.37711014    0.85546995    0.09690000
opls_142-85    C    0.95000995    0.21400998    0.68300999    0.10060000
opls_142-86    C    0.00287985    0.24410988    0.77339034    0.09720000
opls_142-87    C    0.95059994    0.40469978    0.82312999    0.10170000
opls_142-88    C    0.91115991    0.34829986    0.86070994    0.09670000
opls_142-89    C    0.87439000    0.26972982    0.74620976    0.09690000
opls_142-90    C    0.88256984    0.22713981    0.66944944    0.09720000
opls_142-91    C    0.10768004    0.60195999    0.96910980    0.06710000
opls_700-92    C    0.05218005    0.57063005    0.91709045    -0.03300000
opls_145-93    C    0.97483999    0.57282005    0.82120976    -0.12380000
opls_145-94    C    0.02800002    0.59834983    0.86183988    -0.08260000
opls_142-95    C    0.88816009    0.49513002    0.79627055    0.06630000
opls_700-96    C    0.94447992    0.51891979    0.83593990    -0.00240000
opls_166-97    C    0.96807989    0.48977986    0.88950944    0.11170000
opls_166-98    C    0.02237982    0.51553973    0.92699952    0.11280000
opls_142-99    C    0.40713011    0.91704996    0.93016995    0.10320000
opls_142-100    C    0.35135989    0.89471992    0.99444019    0.09780000
opls_142-101    C    0.22744977    0.84129984    0.84927975    0.10060000
opls_142-102    C    0.26829994    0.83588971    0.95552942    0.10170000
opls_142-103    C    0.24466005    0.96624996    0.94064994    0.09750000
opls_142-104    C    0.21609007    0.90760006    0.91841994    0.09720000
opls_142-105    C    0.49094993    0.07292981    0.08246947    0.10160000
opls_142-106    C    0.45245010    0.09179002    0.05082994    0.09750000
opls_142-107    C    0.37065996    0.06570989    0.97447005    0.10060000
opls_142-108    C    0.31464990    0.03647000    0.04193054    0.09720000
opls_142-109    C    0.49929983    0.88535979    0.09992996    -0.02740000
opls_700-110    C    0.52314008    0.94020982    0.04541021    -0.04590000
opls_145-111    C    0.60215012    0.01824010    0.95382064    -0.15950000
opls_145-112    C    0.57677987    0.96660000    0.00968970    -0.11340000
opls_142-113    C    0.60501006    0.09941995    0.87512951    -0.02710000
opls_700-114    C    0.57447988    0.04466007    0.93147962    -0.04570000
opls_166-115    C    0.52001005    0.01849998    0.96778030    0.11520000
opls_166-116    C    0.49440997    0.96629975    0.02314056    0.12080000
opls_142-117    C    0.49706987    0.38237994    0.00679019    0.06710000
opls_700-118    C    0.47336014    0.41389999    0.05903024    -0.04470000
opls_145-119    C    0.39402988    0.41204984    0.15529022    -0.12040000
opls_145-120    C    0.42126988    0.38634993    0.11436010    -0.11430000
opls_142-121    C    0.38584010    0.48979005    0.18059021    -0.02780000
opls_700-122    C    0.41817005    0.46597009    0.14105963    -0.00620000
opls_142-123    C    0.54129996    0.58001998    0.14735952    0.10140000
opls_142-124    C    0.55975988    0.63651006    0.10675979    0.09690000
opls_142-125    C    0.67820019    0.75642008    0.17454935    0.10060000
opls_142-126    C    0.63276984    0.71151972    0.07888936    0.09790000
opls_142-127    C    0.77973002    0.73203998    0.08872971    0.09720000
opls_142-128    C    0.75739002    0.76731992    0.12704049    0.09760000
opls_166-129    C    0.47117991    0.49503006    0.08786938    0.11290000
opls_166-130    C    0.49929007    0.46900991    0.04947005    0.10000000
opls_142-131    C    0.58729009    0.50070008    0.12064942    0.10240000
opls_142-132    C    0.64273008    0.53060987    0.04924010    0.09720000
opls_142-133    C    0.70179000    0.60698010    0.15516995    0.10060000
opls_142-134    C    0.75038995    0.64771996    0.05933023    0.09780000
opls_700-135    C    0.36059979    0.63829985    0.22380002    -0.00010000
opls_145-136    C    0.38195992    0.69236984    0.21822038    -0.08530000
opls_700-137    C    0.34964977    0.71399979    0.19470978    -0.00100000
opls_145-138    C    0.29555994    0.68096983    0.17457974    -0.08370000
opls_700-139    C    0.27361000    0.62689004    0.17955014    -0.00100000
opls_145-140    C    0.30640013    0.60585002    0.20407041    -0.08850000
opls_141-141    C    0.37247980    0.77068979    0.18029947    0.49290000
opls_141-142    C    0.21710982    0.59267982    0.14892953    0.47250000
opls_141-143    C    0.39499971    0.61569974    0.23773986    0.47890000
opls_750-144    N    0.56323985    0.36998978    0.39024026    -0.24820000
opls_750-145    N    0.61492016    0.18068015    0.30808003    -0.24410000
opls_750-146    N    0.80423992    0.42393983    0.25215943    -0.24880000
opls_750-147    N    0.85797009    0.44538006    0.28297034    -0.11470000
opls_750-148    N    0.54282990    0.40208997    0.43495004    -0.11460000
opls_750-149    N    0.18622988    0.61410006    0.58551039    -0.24870000
opls_750-150    N    0.37335984    0.56071996    0.72397050    -0.24410000
opls_750-151    N    0.42797986    0.80382990    0.66898028    -0.24860000
opls_750-152    N    0.44945976    0.85627982    0.62385024    -0.14540000
opls_750-153    N    0.13345979    0.58209983    0.54086007    -0.12930000
opls_750-154    N    0.40568995    0.53954000    0.69334065    -0.06060000
opls_750-155    N    0.58414012    0.12833998    0.35543030    -0.05820000
opls_750-156    N    0.56323985    0.36998978    0.89024026    -0.24810000
opls_750-157    N    0.61492016    0.18068015    0.80808003    -0.24410000
opls_750-158    N    0.80423992    0.42393983    0.75215943    -0.24880000
opls_750-159    N    0.85797009    0.44538006    0.78297034    -0.11470000
opls_750-160    N    0.54282990    0.40208997    0.93495004    -0.11470000
opls_750-161    N    0.18622988    0.61410006    0.08549981    -0.24870000
opls_750-162    N    0.37335984    0.56071996    0.22397050    -0.24400000
opls_750-163    N    0.42797986    0.80382990    0.16898028    -0.24880000
opls_750-164    N    0.44945976    0.85627982    0.12385024    -0.14540000
opls_750-165    N    0.13345979    0.58209983    0.04086007    -0.12930000
opls_750-166    N    0.40568995    0.53954000    0.19334065    -0.06060000
opls_750-167    N    0.58414012    0.12833998    0.85543030    -0.05820000
opls_272-168    O    0.64252991    0.43811977    0.30243960    -0.33260000
opls_272-169    O    0.54499011    0.19451006    0.30776022    -0.34980000
opls_272-170    O    0.78961986    0.34088003    0.22009039    -0.32960000
opls_180-171    O    0.06633995    0.40005989    0.42381984    -0.13440000
opls_180-172    O    0.01755005    0.29655981    0.28510995    -0.13560000
opls_180-173    O    0.91146002    0.21510008    0.28689010    -0.13550000
opls_180-174    O    0.92227003    0.31599976    0.25839985    -0.13360000
opls_180-175    O    0.93634010    0.43644013    0.42154940    -0.16520000
opls_180-176    O    0.04469985    0.48619988    0.48447032    -0.16730000
opls_180-177    O    0.31657998    0.86048971    0.36901993    -0.13550000
opls_180-178    O    0.24547987    0.89356005    0.31076941    -0.13530000
opls_180-179    O    0.29366997    0.98311969    0.51720014    -0.13520000
opls_180-180    O    0.40142020    0.05017016    0.56727943    -0.13570000
opls_180-181    O    0.48970999    0.04188993    0.43816937    -0.16570000
opls_180-182    O    0.44181997    0.94292978    0.57240049    -0.16640000
opls_180-183    O    0.49332017    0.54851012    0.55732014    -0.16380000
opls_180-184    O    0.60761992    0.66829979    0.68955040    -0.13520000
opls_180-185    O    0.71332982    0.74127977    0.73512053    -0.13540000
opls_180-186    O    0.74250982    0.68771975    0.49927050    -0.13360000
opls_180-187    O    0.55111018    0.49800011    0.49094994    -0.17290000
opls_180-188    O    0.65921992    0.58353997    0.53964027    -0.13530000
opls_272-189    O    0.19692001    0.54589991    0.67230005    -0.33270000
opls_272-190    O    0.44220989    0.64390989    0.75525982    -0.34240000
opls_272-191    O    0.34390984    0.78937988    0.67147936    -0.33080000
opls_272-192    O    0.64252991    0.43811977    0.80243960    -0.33250000
opls_272-193    O    0.54499011    0.19451006    0.80774964    -0.34980000
opls_272-194    O    0.78961986    0.34088003    0.72009039    -0.32940000
opls_180-195    O    0.06633995    0.40005989    0.92381984    -0.13440000
opls_180-196    O    0.01755005    0.29655981    0.78510995    -0.13560000
opls_180-197    O    0.91146002    0.21510008    0.78687953    -0.13550000
opls_180-198    O    0.92227003    0.31599976    0.75839985    -0.13360000
opls_180-199    O    0.93634010    0.43644013    0.92154940    -0.16520000
opls_180-200    O    0.04469985    0.48619988    0.98447032    -0.16730000
opls_180-201    O    0.31657998    0.86048971    0.86901993    -0.13550000
opls_180-202    O    0.24547987    0.89356005    0.81076941    -0.13520000
opls_180-203    O    0.29366997    0.98311969    0.01720014    -0.13520000
opls_180-204    O    0.40142020    0.05017016    0.06727943    -0.13570000
opls_180-205    O    0.48970999    0.04188993    0.93816937    -0.16570000
opls_180-206    O    0.44181997    0.94292978    0.07240049    -0.16640000
opls_180-207    O    0.49332017    0.54851012    0.05732014    -0.16390000
opls_180-208    O    0.60761992    0.66829979    0.18955040    -0.13520000
opls_180-209    O    0.71332982    0.74127977    0.23512053    -0.13540000
opls_180-210    O    0.74250982    0.68771975    0.99927050    -0.13360000
opls_180-211    O    0.55111018    0.49800011    0.99094994    -0.17280000
opls_180-212    O    0.65921992    0.58353997    0.03964027    -0.13530000
opls_272-213    O    0.19692001    0.54589991    0.17230005    -0.33270000
opls_272-214    O    0.44220989    0.64390989    0.25525982    -0.34230000
opls_272-215    O    0.34390984    0.78937988    0.17147936    -0.33080000
opls_146-216    H    0.69752984    0.26491981    0.24412037    0.04680000
opls_146-217    H    0.71807995    0.42283992    0.26723978    0.04680000
opls_146-218    H    0.56146012    0.28542008    0.32334012    0.04680000
opls_185-219    H    0.08771977    0.50057974    0.21527066    0.02530000
opls_185-220    H    0.14441987    0.46717974    0.47420045    0.02530000
opls_185-221    H    0.07266995    0.29295005    0.47256965    0.02530000
opls_185-222    H    0.13356990    0.40249998    0.28930063    0.02530000
opls_185-223    H    0.93907001    0.19242001    0.05111011    0.02530000
opls_185-224    H    0.02965983    0.22988995    0.32808056    0.02530000
opls_185-225    H    0.98448001    0.41484977    0.22852989    0.02530000
opls_185-226    H    0.87859003    0.33814008    0.46106016    0.02530000
opls_185-227    H    0.83696005    0.26866990    0.29151028    0.02530000
opls_185-228    H    0.86583977    0.21006978    0.03392980    0.02530000
opls_144-229    H    0.12997013    0.64613008    0.44633002    0.02760000
opls_146-230    H    0.95587984    0.59633975    0.27524052    0.04680000
opls_146-231    H    0.05178991    0.64283978    0.34911984    0.04680000
opls_144-232    H    0.87011001    0.52112979    0.27630967    0.02770000
opls_185-233    H    0.41505973    0.91138974    0.28671962    0.02530000
opls_185-234    H    0.34336007    0.90686000    0.62868980    0.02530000
opls_185-235    H    0.18708002    0.80989974    0.30171010    0.02530000
opls_185-236    H    0.26404977    0.81552978    0.58763942    0.02530000
opls_185-237    H    0.23203979    0.99593985    0.40534043    0.02530000
opls_185-238    H    0.17660985    0.88240973    0.48572052    0.02530000
opls_185-239    H    0.51532014    0.08445995    0.70871967    0.02530000
opls_185-240    H    0.46732000    0.13479004    0.51898953    0.02530000
opls_185-241    H    0.38885998    0.09638992    0.36550061    0.02530000
opls_185-242    H    0.28996003    0.05199013    0.60516995    0.02530000
opls_144-243    H    0.52494004    0.86702993    0.62265026    0.02760000
opls_146-244    H    0.64604990    0.03942005    0.42575990    0.04680000
opls_146-245    H    0.60018998    0.94561995    0.52644975    0.04680000
opls_144-246    H    0.64872003    0.11764985    0.34724983    0.02760000
opls_144-247    H    0.47488996    0.33818986    0.52914046    0.02760000
opls_146-248    H    0.35150996    0.38871006    0.70095020    0.04680000
opls_146-249    H    0.40028995    0.34183999    0.62664006    0.04680000
opls_144-250    H    0.34179016    0.46386005    0.70088016    0.02760000
opls_185-251    H    0.55895991    0.56085010    0.73265978    0.02530000
opls_185-252    H    0.53504984    0.64730995    0.51940054    0.02530000
opls_185-253    H    0.68611986    0.79788980    0.70028017    0.02530000
opls_185-254    H    0.62382016    0.71659001    0.43602976    0.02530000
opls_185-255    H    0.81966989    0.73675983    0.62101945    0.02530000
opls_185-256    H    0.77683989    0.80855994    0.56921949    0.02530000
opls_185-257    H    0.57257004    0.48169993    0.75550034    0.02530000
opls_185-258    H    0.66423995    0.50876981    0.51268039    0.02530000
opls_185-259    H    0.69667016    0.59443002    0.79970001    0.02530000
opls_185-260    H    0.78594007    0.64228003    0.54641064    0.02530000
opls_146-261    H    0.42608007    0.71930997    0.73286991    0.04680000
opls_146-262    H    0.26904981    0.69840989    0.65384971    0.04680000
opls_146-263    H    0.28831999    0.56142984    0.70788048    0.04680000
opls_146-264    H    0.69752984    0.26491981    0.74412037    0.04680000
opls_146-265    H    0.71807995    0.42283992    0.76723053    0.04680000
opls_146-266    H    0.56146012    0.28542008    0.82334012    0.04680000
opls_185-267    H    0.08771977    0.50057974    0.71527066    0.02530000
opls_185-268    H    0.14441987    0.46717974    0.97420045    0.02530000
opls_185-269    H    0.07266995    0.29295005    0.97256965    0.02530000
opls_185-270    H    0.13356990    0.40249998    0.78930063    0.02530000
opls_185-271    H    0.93907001    0.19242001    0.55111011    0.02530000
opls_185-272    H    0.02965983    0.22988995    0.82808056    0.02540000
opls_185-273    H    0.98448001    0.41484977    0.72852989    0.02530000
opls_185-274    H    0.87859003    0.33814008    0.96106016    0.02530000
opls_185-275    H    0.83696005    0.26866990    0.79151028    0.02530000
opls_185-276    H    0.86583977    0.21006978    0.53392980    0.02530000
opls_144-277    H    0.12997013    0.64613008    0.94633002    0.02760000
opls_146-278    H    0.95587984    0.59633975    0.77524052    0.04680000
opls_146-279    H    0.05178991    0.64283978    0.84911984    0.04680000
opls_144-280    H    0.87011001    0.52112979    0.77630967    0.02760000
opls_185-281    H    0.41505973    0.91138974    0.78671962    0.02530000
opls_185-282    H    0.34336007    0.90686000    0.12868980    0.02530000
opls_185-283    H    0.18708002    0.80989974    0.80171010    0.02530000
opls_185-284    H    0.26404977    0.81552978    0.08763942    0.02530000
opls_185-285    H    0.23203979    0.99593985    0.90534043    0.02530000
opls_185-286    H    0.17660985    0.88240973    0.98572052    0.02530000
opls_185-287    H    0.51532014    0.08445995    0.20871967    0.02530000
opls_185-288    H    0.46732000    0.13479004    0.01898953    0.02530000
opls_185-289    H    0.38885998    0.09638992    0.86550061    0.02530000
opls_185-290    H    0.28996003    0.05199013    0.10516995    0.02540000
opls_144-291    H    0.52494004    0.86702993    0.12265026    0.02760000
opls_146-292    H    0.64604990    0.03942005    0.92575990    0.04680000
opls_146-293    H    0.60018998    0.94561995    0.02644975    0.04680000
opls_144-294    H    0.64872003    0.11764985    0.84724983    0.02760000
opls_144-295    H    0.47488996    0.33818986    0.02914046    0.02760000
opls_146-296    H    0.35150996    0.38871006    0.20095020    0.04680000
opls_146-297    H    0.40028995    0.34183999    0.12664006    0.04680000
opls_144-298    H    0.34179016    0.46386005    0.20088016    0.02760000
opls_185-299    H    0.55895991    0.56085010    0.23265978    0.02530000
opls_185-300    H    0.53504984    0.64730995    0.01940054    0.02530000
opls_185-301    H    0.68611986    0.79788980    0.20028017    0.02530000
opls_185-302    H    0.62382016    0.71659001    0.93602976    0.02530000
opls_185-303    H    0.81966989    0.73675983    0.12101945    0.02530000
opls_185-304    H    0.77683989    0.80855994    0.06921949    0.02530000
opls_185-305    H    0.57257004    0.48169993    0.25550034    0.02530000
opls_185-306    H    0.66423995    0.50876981    0.01268039    0.02530000
opls_185-307    H    0.69667016    0.59443002    0.29970001    0.02530000
opls_185-308    H    0.78594007    0.64228003    0.04641064    0.02530000
opls_146-309    H    0.42608007    0.71930997    0.23286991    0.04680000
opls_146-310    H    0.26904981    0.69840989    0.15384971    0.04680000
opls_146-311    H    0.28831999    0.56142984    0.20788048    0.04680000
