#======================================================================
# Crystal Data Generated By AuToFF
#----------------------------------------------------------------------

data_AuToFF_phase_1

_cell_length_a                         37.5412
_cell_length_b                         37.5412
_cell_length_c                         3.3784
_cell_angle_alpha                      90.00
_cell_angle_beta                       90.00
_cell_angle_gamma                      120.00
_symmetry_space_group_name_H-M_alt     'P 1'
_symmetry_space_group_IT_number        1

loop_
_space_group_symop_operation_xyz
   'x, y, z'

loop_
   _atom_site_label
   _atom_site_type_symbol
   _atom_site_fract_x
   _atom_site_fract_y
   _atom_site_fract_z
   _atom_site_charge
opls_700-0    C    0.29457016    0.62814015    0.50000000    0.03570000
opls_700-1    C    0.37186008    0.66643014    0.50000000    0.03570000
opls_700-2    C    0.33356991    0.70543003    0.50000000    0.03570000
opls_700-3    C    0.70542999    0.37186016    0.50000000    0.03570000
opls_700-4    C    0.62814008    0.33357017    0.50000000    0.03570000
opls_700-5    C    0.66643009    0.29456997    0.50000000    0.03570000
opls_700-6    C    0.62813989    0.29456997    0.50000000    0.03570000
opls_700-7    C    0.66643017    0.37186016    0.50000000    0.03570000
opls_700-8    C    0.70543009    0.33357017    0.50000000    0.03570000
opls_700-9    C    0.37186011    0.70543003    0.50000000    0.03570000
opls_700-10    C    0.33356998    0.62814015    0.50000000    0.03570000
opls_700-11    C    0.29457006    0.66643014    0.50000000    0.03570000
opls_145-12    C    0.33387993    0.59167012    0.50000000    -0.22630000
opls_145-13    C    0.40833002    0.74221010    0.50000000    -0.22340000
opls_145-14    C    0.25778994    0.66612009    0.50000000    -0.22630000
opls_145-15    C    0.66612023    0.40833019    0.50000000    -0.22630000
opls_145-16    C    0.59166998    0.25778990    0.50000000    -0.22340000
opls_145-17    C    0.74221006    0.33387991    0.50000000    -0.22630000
opls_145-18    C    0.59166985    0.33387991    0.50000000    -0.22630000
opls_145-19    C    0.74220996    0.40833019    0.50000000    -0.22340000
opls_145-20    C    0.66611992    0.25778990    0.50000000    -0.22630000
opls_145-21    C    0.40833015    0.66612009    0.50000000    -0.22630000
opls_145-22    C    0.25779019    0.59167012    0.50000000    -0.22340000
opls_145-23    C    0.33388008    0.74221010    0.50000000    -0.22630000
opls_166-24    C    0.37097011    0.59167012    0.50000000    0.19120000
opls_166-25    C    0.40833011    0.77930021    0.50000000    0.19120000
opls_166-26    C    0.22069993    0.62902998    0.50000000    0.19120000
opls_166-27    C    0.62903004    0.40833019    0.50000000    0.19120000
opls_166-28    C    0.59167004    0.22070010    0.50000000    0.19120000
opls_166-29    C    0.77930007    0.37097002    0.50000000    0.19120000
opls_166-30    C    0.59166995    0.37097002    0.50000000    0.19120000
opls_166-31    C    0.77930015    0.40833019    0.50000000    0.19120000
opls_166-32    C    0.62903006    0.22070010    0.50000000    0.19120000
opls_166-33    C    0.40833005    0.62902998    0.50000000    0.19120000
opls_166-34    C    0.22070001    0.59167012    0.50000000    0.19120000
opls_166-35    C    0.37097009    0.77930021    0.50000000    0.19120000
opls_145-36    C    0.42427997    0.51126012    0.50000000    -0.05970000
opls_145-37    C    0.48873995    0.91302005    0.50000000    -0.05970000
opls_145-38    C    0.08697997    0.57572013    0.50000000    -0.05970000
opls_145-39    C    0.57572018    0.48874018    0.50000000    -0.05970000
opls_145-40    C    0.51126005    0.08697995    0.50000000    -0.05970000
opls_145-41    C    0.91302019    0.42428017    0.50000000    -0.05970000
opls_145-42    C    0.51125999    0.42428017    0.50000000    -0.05970000
opls_145-43    C    0.91302000    0.48874018    0.50000000    -0.05980000
opls_145-44    C    0.57571990    0.08697995    0.50000000    -0.05970000
opls_145-45    C    0.48874017    0.57572013    0.50000000    -0.05970000
opls_145-46    C    0.08698015    0.51126012    0.50000000    -0.05970000
opls_145-47    C    0.42428010    0.91302005    0.50000000    -0.05970000
opls_700-48    C    0.44513016    0.48902008    0.50000000    0.07750000
opls_700-49    C    0.51097998    0.95611017    0.50000000    0.07750000
opls_700-50    C    0.04389002    0.55487006    0.50000000    0.07750000
opls_700-51    C    0.55486984    0.51097992    0.50000000    0.07750000
opls_700-52    C    0.48902018    0.04389014    0.50000000    0.07750000
opls_700-53    C    0.95610998    0.44512994    0.50000000    0.07750000
opls_700-54    C    0.48901996    0.44512994    0.50000000    0.07750000
opls_700-55    C    0.95611008    0.51097992    0.50000000    0.07750000
opls_700-56    C    0.55486996    0.04389014    0.50000000    0.07750000
opls_700-57    C    0.51098004    0.55487006    0.50000000    0.07750000
opls_700-58    C    0.04388992    0.48902008    0.50000000    0.07750000
opls_700-59    C    0.44513019    0.95611017    0.50000000    0.07750000
opls_145-60    C    0.42389990    0.44477007    0.50000000    -0.10070000
opls_145-61    C    0.55523004    0.97913024    0.50000000    -0.10070000
opls_145-62    C    0.02086994    0.57610000    0.50000000    -0.10070000
opls_145-63    C    0.57610010    0.55522993    0.50000000    -0.10070000
opls_145-64    C    0.44477011    0.02087007    0.50000000    -0.10070000
opls_145-65    C    0.97913006    0.42390000    0.50000000    -0.10070000
opls_145-66    C    0.44476994    0.42390000    0.50000000    -0.10070000
opls_145-67    C    0.97912983    0.55522993    0.50000000    -0.10070000
opls_145-68    C    0.57609996    0.02087007    0.50000000    -0.10070000
opls_145-69    C    0.55523006    0.57610000    0.50000000    -0.10070000
opls_145-70    C    0.02087017    0.44477007    0.50000000    -0.10070000
opls_145-71    C    0.42390020    0.97913024    0.50000000    -0.10070000
opls_145-72    C    0.44551994    0.55448004    0.50000000    -0.19800000
opls_145-73    C    0.44552011    0.89104022    0.50000000    -0.19800000
opls_145-74    C    0.10896011    0.55448004    0.50000000    -0.19800000
opls_145-75    C    0.55448006    0.44551996    0.50000000    -0.19800000
opls_145-76    C    0.55448004    0.10896009    0.50000000    -0.19800000
opls_145-77    C    0.89103989    0.44551996    0.50000000    -0.19800000
opls_700-78    C    0.48905015    0.51095008    0.50000000    -0.00230000
opls_700-79    C    0.48905007    0.97810014    0.50000000    -0.00230000
opls_700-80    C    0.02189993    0.51095008    0.50000000    -0.00230000
opls_700-81    C    0.51094985    0.48904992    0.50000000    -0.00230000
opls_700-82    C    0.51094993    0.02189986    0.50000000    -0.00230000
opls_700-83    C    0.97810007    0.48904992    0.50000000    -0.00230000
opls_167-84    O    0.37899000    0.55964004    0.50000000    -0.28200000
opls_167-85    O    0.44036005    0.81935018    0.50000000    -0.28200000
opls_167-86    O    0.18065011    0.62101008    0.50000000    -0.28210000
opls_167-87    O    0.62101000    0.44035996    0.50000000    -0.28200000
opls_167-88    O    0.55964011    0.18065012    0.50000000    -0.28200000
opls_167-89    O    0.81934989    0.37898992    0.50000000    -0.28200000
opls_167-90    O    0.55964003    0.37898992    0.50000000    -0.28200000
opls_167-91    O    0.81934996    0.44035996    0.50000000    -0.28200000
opls_167-92    O    0.62101002    0.18065012    0.50000000    -0.28200000
opls_167-93    O    0.44035997    0.62101008    0.50000000    -0.28200000
opls_167-94    O    0.18065004    0.55964004    0.50000000    -0.28200000
opls_167-95    O    0.37899014    0.81935018    0.50000000    -0.28200000
MOF2_B_2-96    B    0.42181000    0.57819002    0.50000000    0.64500000
MOF2_B_2-97    B    0.42180998    0.84361996    0.50000000    0.64500000
MOF2_B_2-98    B    0.15638002    0.57819002    0.50000000    0.64500000
MOF2_B_2-99    B    0.57819000    0.42180998    0.50000000    0.64500000
MOF2_B_2-100    B    0.57819002    0.15638004    0.50000000    0.64500000
MOF2_B_2-101    B    0.84361998    0.42180998    0.50000000    0.64500000
opls_146-102    H    0.30363993    0.56118011    0.50000000    0.04700000
opls_146-103    H    0.43881995    0.74247000    0.50000000    0.04700000
opls_146-104    H    0.25753001    0.69636004    0.50000000    0.04700000
opls_146-105    H    0.69636007    0.43881989    0.50000000    0.04700000
opls_146-106    H    0.56118005    0.25753000    0.50000000    0.04700000
opls_146-107    H    0.74246999    0.30363996    0.50000000    0.04700000
opls_146-108    H    0.56118010    0.30363996    0.50000000    0.04700000
opls_146-109    H    0.74246994    0.43881989    0.50000000    0.04700000
opls_146-110    H    0.69636007    0.25753000    0.50000000    0.04700000
opls_146-111    H    0.43881990    0.69636004    0.50000000    0.04700000
opls_146-112    H    0.25753006    0.56118011    0.50000000    0.04700000
opls_146-113    H    0.30363993    0.74247000    0.50000000    0.04700000
opls_146-114    H    0.38922007    0.49430004    0.50000000    0.04700000
opls_146-115    H    0.50570005    0.89492006    0.50000000    0.04700000
opls_146-116    H    0.10508004    0.61078020    0.50000000    0.04700000
opls_146-117    H    0.61077993    0.50569996    0.50000000    0.04700000
opls_146-118    H    0.49429995    0.10507994    0.50000000    0.04700000
opls_146-119    H    0.89492997    0.38922010    0.50000000    0.04700000
opls_146-120    H    0.49429999    0.38922010    0.50000000    0.04700000
opls_146-121    H    0.89492988    0.50569996    0.50000000    0.04700000
opls_146-122    H    0.61078012    0.10507009    0.50000000    0.04700000
opls_146-123    H    0.50570016    0.61078020    0.50000000    0.04700000
opls_146-124    H    0.10507997    0.49430004    0.50000000    0.04700000
opls_146-125    H    0.38922003    0.89493021    0.50000000    0.04700000
opls_146-126    H    0.38885003    0.42653014    0.50000000    0.04700000
opls_146-127    H    0.57347016    0.96231010    0.50000000    0.04700000
opls_146-128    H    0.03769009    0.61116007    0.50000000    0.04700000
opls_146-129    H    0.61115998    0.57347017    0.50000000    0.04700000
opls_146-130    H    0.42652984    0.03768990    0.50000000    0.04700000
opls_146-131    H    0.96230992    0.38885008    0.50000000    0.04700000
opls_146-132    H    0.42653004    0.38885008    0.50000000    0.04700000
opls_146-133    H    0.96231019    0.57347017    0.50000000    0.04700000
opls_146-134    H    0.61116006    0.03768990    0.50000000    0.04700000
opls_146-135    H    0.57346998    0.61116007    0.50000000    0.04700000
opls_146-136    H    0.03768997    0.42653014    0.50000000    0.04700000
opls_146-137    H    0.38885006    0.96231010    0.50000000    0.04700000
