#======================================================================
# Crystal Data Generated By AuToFF
#----------------------------------------------------------------------

data_AuToFF_phase_1

_cell_length_a                         41.2708
_cell_length_b                         41.2708
_cell_length_c                         4.2770
_cell_angle_alpha                      90.00
_cell_angle_beta                       90.00
_cell_angle_gamma                      120.00
_symmetry_space_group_name_H-M_alt     'P 1'
_symmetry_space_group_IT_number        1

loop_
_space_group_symop_operation_xyz
   'x, y, z'

loop_
   _atom_site_label
   _atom_site_type_symbol
   _atom_site_fract_x
   _atom_site_fract_y
   _atom_site_fract_z
   _atom_site_charge
opls_145-0    C    0.59969009    0.22842008    0.57538929    -0.13140000
opls_145-1    C    0.58242987    0.18974997    0.53035071    -0.24160000
opls_166-2    C    0.59838990    0.17473999    0.32789105    0.25840000
opls_145-3    C    0.63281999    0.19868998    0.18757073    -0.20510000
opls_145-4    C    0.65001005    0.23733995    0.23018003    -0.12820000
opls_700-5    C    0.63343007    0.25276009    0.42176993    0.06950000
opls_700-6    C    0.65051014    0.29404005    0.44995090    0.06480000
opls_145-7    C    0.68957984    0.31734989    0.45230068    -0.17770000
opls_465-8    C    0.57299010    0.45533015    0.15620061    0.49820000
opls_700-9    C    0.51075011    0.49354001    0.60180033    0.06260000
opls_145-10    C    0.49356996    0.45687010    0.72711948    -0.13140000
opls_145-11    C    0.51357012    0.44488013    0.91069909    -0.11860000
opls_700-12    C    0.55145999    0.46887993    0.97649053    -0.04210000
opls_145-13    C    0.56884994    0.50543009    0.85894085    -0.11840000
opls_145-14    C    0.54896009    0.51758009    0.67569090    -0.13140000
opls_145-15    C    0.77158004    0.37127003    0.57538929    -0.13140000
opls_145-16    C    0.81025014    0.39268012    0.53035071    -0.24160000
opls_166-17    C    0.82525990    0.42364995    0.32789105    0.25840000
opls_145-18    C    0.80130999    0.43412990    0.18757073    -0.20510000
opls_145-19    C    0.76266006    0.41267001    0.23018003    -0.12820000
opls_700-20    C    0.74723989    0.38067001    0.42176993    0.06950000
opls_700-21    C    0.70595987    0.35646989    0.44995090    0.06480000
opls_145-22    C    0.68265007    0.37222998    0.45230068    -0.17770000
opls_465-23    C    0.54467008    0.11765995    0.15620061    0.49820000
opls_700-24    C    0.50645987    0.01720994    0.60180033    0.06260000
opls_145-25    C    0.54313006    0.03670013    0.72711948    -0.13140000
opls_145-26    C    0.55512001    0.06869006    0.91069909    -0.11860000
opls_700-27    C    0.53112013    0.08258006    0.97649053    -0.04210000
opls_145-28    C    0.49456994    0.06342001    0.85894085    -0.11840000
opls_145-29    C    0.48241999    0.03138000    0.67569090    -0.13140000
opls_145-30    C    0.62872987    0.40030989    0.57538929    -0.13140000
opls_145-31    C    0.60732000    0.41756991    0.53035071    -0.24160000
opls_166-32    C    0.57634997    0.40161006    0.32789105    0.25840000
opls_145-33    C    0.56587002    0.36718011    0.18757073    -0.20510000
opls_145-34    C    0.58733013    0.34999004    0.23018003    -0.12820000
opls_700-35    C    0.61933005    0.36656990    0.42176993    0.06950000
opls_700-36    C    0.64352998    0.34949006    0.44995090    0.06480000
opls_145-37    C    0.62777009    0.31042014    0.45230068    -0.17770000
opls_465-38    C    0.88234006    0.42700990    0.15620061    0.49820000
opls_700-39    C    0.98279002    0.48925005    0.60180033    0.06260000
opls_145-40    C    0.96330012    0.50643005    0.72711948    -0.13140000
opls_145-41    C    0.93131001    0.48643008    0.91069909    -0.11860000
opls_700-42    C    0.91742013    0.44854002    0.97649053    -0.04210000
opls_145-43    C    0.93657987    0.43114990    0.85894085    -0.11840000
opls_145-44    C    0.96861992    0.45103991    0.67569090    -0.13140000
opls_145-45    C    0.40030991    0.77157992    0.42461071    -0.13140000
opls_145-46    C    0.41757013    0.81025003    0.46964929    -0.24160000
opls_166-47    C    0.40161010    0.82526001    0.67210895    0.25840000
opls_145-48    C    0.36718001    0.80131002    0.81242927    -0.20510000
opls_145-49    C    0.34998995    0.76266005    0.76981997    -0.12820000
opls_700-50    C    0.36656993    0.74723991    0.57823007    0.06950000
opls_700-51    C    0.34948986    0.70595995    0.55004910    0.06480000
opls_145-52    C    0.31042016    0.68265011    0.54769932    -0.17770000
opls_465-53    C    0.42701004    0.54467013    0.84379939    0.49820000
opls_700-54    C    0.48924989    0.50645999    0.39819967    0.06260000
opls_145-55    C    0.50643004    0.54312990    0.27288052    -0.13140000
opls_145-56    C    0.48643002    0.55512015    0.08930091    -0.11860000
opls_700-57    C    0.44854001    0.53112007    0.02350947    -0.04210000
opls_145-58    C    0.43115006    0.49456991    0.14105915    -0.11840000
opls_145-59    C    0.45103991    0.48241991    0.32430910    -0.13140000
opls_145-60    C    0.22841996    0.62872997    0.42461071    -0.13140000
opls_145-61    C    0.18974986    0.60731988    0.46964929    -0.24160000
opls_166-62    C    0.17474010    0.57635005    0.67210895    0.25840000
opls_145-63    C    0.19869001    0.56587010    0.81242927    -0.20520000
opls_145-64    C    0.23733994    0.58732999    0.76981997    -0.12820000
opls_700-65    C    0.25276011    0.61932999    0.57823007    0.06950000
opls_700-66    C    0.29404013    0.64353011    0.55004910    0.06480000
opls_145-67    C    0.31734993    0.62777002    0.54769932    -0.17770000
opls_465-68    C    0.45532992    0.88234005    0.84379939    0.49820000
opls_700-69    C    0.49354013    0.98279006    0.39819967    0.06250000
opls_145-70    C    0.45687008    0.96330015    0.27288052    -0.13140000
opls_145-71    C    0.44487999    0.93130994    0.08930091    -0.11860000
opls_700-72    C    0.46887987    0.91741994    0.02350947    -0.04210000
opls_145-73    C    0.50543006    0.93657999    0.14105915    -0.11850000
opls_145-74    C    0.51758001    0.96862000    0.32430910    -0.13140000
opls_145-75    C    0.37127013    0.59969011    0.42461071    -0.13140000
opls_145-76    C    0.39268000    0.58243009    0.46964929    -0.24160000
opls_166-77    C    0.42365003    0.59838994    0.67210895    0.25840000
opls_145-78    C    0.43412998    0.63281989    0.81242927    -0.20510000
opls_145-79    C    0.41266987    0.65000996    0.76981997    -0.12820000
opls_700-80    C    0.38066995    0.63343010    0.57823007    0.06950000
opls_700-81    C    0.35647002    0.65050994    0.55004910    0.06480000
opls_145-82    C    0.37223005    0.68958014    0.54769932    -0.17770000
opls_465-83    C    0.11765994    0.57299010    0.84379939    0.49820000
opls_700-84    C    0.01720998    0.51074995    0.39819967    0.06260000
opls_145-85    C    0.03669988    0.49356995    0.27288052    -0.13140000
opls_145-86    C    0.06868999    0.51356992    0.08930091    -0.11860000
opls_700-87    C    0.08257987    0.55145998    0.02350947    -0.04210000
opls_145-88    C    0.06342013    0.56885010    0.14105915    -0.11840000
opls_145-89    C    0.03138008    0.54896009    0.32430910    -0.13150000
opls_146-90    H    0.58678001    0.23925005    0.73239888    0.11570000
opls_146-91    H    0.55673017    0.17162010    0.65327098    0.12070000
opls_146-92    H    0.64564000    0.18737990    0.03472995    0.11740000
opls_146-93    H    0.67561000    0.25513995    0.10378069    0.11740000
opls_146-94    H    0.70731010    0.30496011    0.44657938    0.11710000
opls_146-95    H    0.46463996    0.43656013    0.68747019    0.22750000
opls_146-96    H    0.49924011    0.41646000    0.99852934    0.11690000
opls_146-97    H    0.59810990    0.52474990    0.90632920    0.11540000
opls_146-98    H    0.56454000    0.54599995    0.59437924    0.22750000
opls_146-99    H    0.76074993    0.34752988    0.73239888    0.11570000
opls_146-100    H    0.82838006    0.38510994    0.65327098    0.12070000
opls_146-101    H    0.81262006    0.45826008    0.03472995    0.11750000
opls_146-102    H    0.74485991    0.42046990    0.10378069    0.11750000
opls_146-103    H    0.69503996    0.40235009    0.44657938    0.11700000
opls_146-104    H    0.56344002    0.02807992    0.68747019    0.22750000
opls_146-105    H    0.58353995    0.08278010    0.99852934    0.11690000
opls_146-106    H    0.47524987    0.07335998    0.90632920    0.11540000
opls_146-107    H    0.45399995    0.01854004    0.59437924    0.22750000
opls_146-108    H    0.65247006    0.41322007    0.73239888    0.11570000
opls_146-109    H    0.61489002    0.44326996    0.65327098    0.12070000
opls_146-110    H    0.54173994    0.35436002    0.03472995    0.11750000
opls_146-111    H    0.57953009    0.32439015    0.10378069    0.11740000
opls_146-112    H    0.59765008    0.29269008    0.44657938    0.11710000
opls_146-113    H    0.97192002    0.53535996    0.68747019    0.22750000
opls_146-114    H    0.91721994    0.50075990    0.99852934    0.11690000
opls_146-115    H    0.92663998    0.40189012    0.90632920    0.11540000
opls_146-116    H    0.98146005    0.43546001    0.59437924    0.22750000
opls_146-117    H    0.41321999    0.76074995    0.26760112    0.11570000
opls_146-118    H    0.44326983    0.82837990    0.34672902    0.12070000
opls_146-119    H    0.35436000    0.81262010    0.96527005    0.11750000
opls_146-120    H    0.32439000    0.74486005    0.89621931    0.11750000
opls_146-121    H    0.29268990    0.69503989    0.55342062    0.11710000
opls_146-122    H    0.53536018    0.56344015    0.31252981    0.22750000
opls_146-123    H    0.50075989    0.58354000    0.00147066    0.11690000
opls_146-124    H    0.40189010    0.47525010    0.09367080    0.11530000
opls_146-125    H    0.43546000    0.45400005    0.40562076    0.22750000
opls_146-126    H    0.23925007    0.65247012    0.26760112    0.11570000
opls_146-127    H    0.17161994    0.61489006    0.34672902    0.12070000
opls_146-128    H    0.18737994    0.54173992    0.96527005    0.11750000
opls_146-129    H    0.25514009    0.57953010    0.89621931    0.11750000
opls_146-130    H    0.30496004    0.59764991    0.55342062    0.11710000
opls_146-131    H    0.43655998    0.97192008    0.31252981    0.22750000
opls_146-132    H    0.41646005    0.91721990    0.00147066    0.11690000
opls_146-133    H    0.52475013    0.92664002    0.09367080    0.11540000
opls_146-134    H    0.54600005    0.98145996    0.40562076    0.22750000
opls_146-135    H    0.34752994    0.58677993    0.26760112    0.11570000
opls_146-136    H    0.38510998    0.55673004    0.34672902    0.12070000
opls_146-137    H    0.45826006    0.64563998    0.96527005    0.11750000
opls_146-138    H    0.42047005    0.67561013    0.89621931    0.11750000
opls_146-139    H    0.40234992    0.70730992    0.55342062    0.11700000
opls_146-140    H    0.02807998    0.46464004    0.31252981    0.22750000
opls_146-141    H    0.08278006    0.49924010    0.00147066    0.11690000
opls_146-142    H    0.07336016    0.59811016    0.09367080    0.11540000
opls_146-143    H    0.01853995    0.56453999    0.40562076    0.22750000
opls_466-144    O    0.60746004    0.47567006    0.18141922    -0.52370000
opls_473-145    O    0.55450011    0.41829008    0.26891045    -0.27950000
opls_466-146    O    0.52433002    0.13178999    0.18141922    -0.52370000
opls_473-147    O    0.58171005    0.13621006    0.26891045    -0.27950000
opls_466-148    O    0.86820994    0.39253995    0.18141922    -0.52380000
opls_473-149    O    0.86378998    0.44550014    0.26891045    -0.27950000
opls_466-150    O    0.39253996    0.52432994    0.81858078    -0.52370000
opls_473-151    O    0.44549989    0.58170992    0.73108955    -0.27950000
opls_466-152    O    0.47566998    0.86821001    0.81858078    -0.52370000
opls_473-153    O    0.41828995    0.86378994    0.73108955    -0.27960000
opls_466-154    O    0.13179006    0.60746005    0.81858078    -0.52370000
opls_473-155    O    0.13621016    0.55450014    0.73108955    -0.27950000
