#======================================================================
# Crystal Data Generated By AuToFF
#----------------------------------------------------------------------

data_AuToFF_phase_1

_cell_length_a                         30.1441
_cell_length_b                         30.1305
_cell_length_c                         7.0819
_cell_angle_alpha                      90.23
_cell_angle_beta                       90.32
_cell_angle_gamma                      60.49
_symmetry_space_group_name_H-M_alt     'P 1'
_symmetry_space_group_IT_number        1

loop_
_space_group_symop_operation_xyz
   'x, y, z'

loop_
   _atom_site_label
   _atom_site_type_symbol
   _atom_site_fract_x
   _atom_site_fract_y
   _atom_site_fract_z
   _atom_site_charge
opls_280-0    C    0.16763006    0.71210994    0.09844982    0.16840000
opls_280-1    C    0.10157988    0.68271018    0.04259946    0.19440000
opls_280-2    C    0.19391011    0.61718998    0.13301034    0.35640000
opls_700-3    C    0.20601000    0.65907002    0.14428011    -0.11710000
opls_700-4    C    0.11600004    0.72285005    0.04459048    -0.16950000
opls_700-5    C    0.14152995    0.62983008    0.08046000    -0.11070000
opls_142-6    C    0.25527985    0.64941016    0.18575979    -0.13450000
opls_142-7    C    0.13164986    0.58943005    0.05609042    -0.14710000
opls_142-8    C    0.07894016    0.77155975    0.98759069    -0.05060000
opls_280-9    C    0.77778019    0.38941984    0.95348062    0.33090000
opls_280-10    C    0.80115022    0.29529974    0.92096055    0.33090000
opls_280-11    C    0.86833990    0.32252001    0.85361025    0.34130000
opls_700-12    C    0.83016016    0.37542001    0.89958033    -0.16870000
opls_700-13    C    0.76452015    0.34854979    0.96989034    -0.11150000
opls_700-14    C    0.85289019    0.28311985    0.86342982    -0.16870000
opls_142-15    C    0.84274021    0.41431974    0.89653025    -0.09510000
opls_142-16    C    0.89046012    0.23302007    0.82951038    -0.05050000
opls_142-17    C    0.71631993    0.35920012    0.03154998    -0.05060000
opls_234-18    C    0.91115988    0.10643001    0.76541067    0.48010000
opls_700-19    C    0.95030995    0.05251986    0.81026945    -0.12070000
opls_166-20    C    0.00298986    0.03683004    0.82224949    0.23360000
opls_145-21    C    0.93400995    0.01686990    0.84435975    -0.23210000
opls_145-22    C    0.03869010    0.98647992    0.87153936    -0.23200000
opls_166-23    C    0.96967018    0.96654981    0.89438955    0.23420000
opls_700-24    C    0.02232989    0.95092995    0.90786074    -0.12070000
opls_234-25    C    0.06091024    0.89817983    0.96773975    0.47870000
opls_234-26    C    0.95318018    0.42703977    0.80125053    0.47750000
opls_234-27    C    0.37904986    0.54402009    0.17641045    0.48410000
opls_700-28    C    0.43486986    0.52620011    0.18550986    -0.10340000
opls_166-29    C    0.45604999    0.55895987    0.20290944    0.23330000
opls_145-30    C    0.46753985    0.47401016    0.14855022    -0.23200000
opls_145-31    C    0.50883003    0.53952006    0.18211947    -0.21440000
opls_166-32    C    0.52023990    0.45451991    0.13051945    0.22900000
opls_700-33    C    0.54133022    0.48733990    0.14583057    -0.12070000
opls_700-34    C    0.97270984    0.46375010    0.82822963    -0.10340000
opls_166-35    C    0.94191990    0.51639994    0.78754070    0.23170000
opls_145-36    C    0.02395007    0.44487999    0.88096072    -0.23200000
opls_145-37    C    0.96203002    0.54941994    0.80638060    -0.23200000
opls_166-38    C    0.04401000    0.47805998    0.90033014    0.23210000
opls_700-39    C    0.01287004    0.53104005    0.86562983    -0.10370000
opls_234-40    C    0.02946996    0.57018008    0.88287973    0.47850000
opls_234-41    C    0.59593994    0.46925988    0.09857974    0.48410000
opls_182-42    C    0.53959005    0.36526004    0.10795026    0.08880000
opls_135-43    C    0.58758980    0.31424015    0.09138945    -0.38040000
opls_182-44    C    0.43967018    0.64609992    0.26704021    0.08880000
opls_135-45    C    0.39414996    0.69596005    0.32472062    -0.38180000
opls_182-46    C    0.90833002    0.93520982    0.87500035    0.08880000
opls_135-47    C    0.91079012    0.88444007    0.90474005    -0.37980000
opls_182-48    C    0.06546013    0.06710975    0.82717057    0.08880000
opls_135-49    C    0.06395998    0.11712981    0.78946960    -0.37980000
opls_182-50    C    0.85904020    0.58396981    0.66970027    0.08880000
opls_135-51    C    0.81503997    0.58559979    0.56111034    -0.38180000
opls_182-52    C    0.12867999    0.40849973    0.99766019    0.08900000
opls_135-53    C    0.17473996    0.40568001    0.09432939    -0.36950000
opls_280-54    C    0.87045995    0.30191993    0.34938956    0.35500000
opls_280-55    C    0.77879996    0.32723990    0.44420047    0.29400000
opls_280-56    C    0.80641003    0.39560981    0.43014044    0.16840000
opls_700-57    C    0.85755997    0.35570989    0.37089969    -0.16950000
opls_700-58    C    0.83055986    0.28846996    0.38709053    -0.11150000
opls_700-59    C    0.76785992    0.38036001    0.47021935    -0.11790000
opls_142-60    C    0.89677978    0.36673016    0.34391071    -0.05050000
opls_142-61    C    0.72033989    0.41813992    0.53422021    -0.14800000
opls_142-62    C    0.84132016    0.23771989    0.37713965    -0.14610000
opls_280-63    C    0.16973018    0.62190996    0.61599061    0.35530000
opls_280-64    C    0.10413008    0.71534004    0.54323066    0.33090000
opls_280-65    C    0.19710002    0.69055010    0.61865943    0.17060000
opls_700-66    C    0.20827985    0.63761013    0.64947937    -0.16950000
opls_700-67    C    0.11815996    0.66129011    0.55930995    -0.14530000
opls_700-68    C    0.14472012    0.72889997    0.56432987    -0.10930000
opls_142-69    C    0.25729992    0.59907995    0.69492981    -0.09510000
opls_142-70    C    0.13530015    0.77815997    0.52450937    -0.05050000
opls_142-71    C    0.08104989    0.64817013    0.51266066    -0.07080000
opls_234-72    C    0.02814001    0.90108007    0.46596054    0.48480000
opls_700-73    C    0.00933012    0.95491993    0.40467933    -0.10340000
opls_166-74    C    0.04156996    0.97667005    0.39148067    0.23280000
opls_145-75    C    0.95687984    0.98550020    0.36639941    -0.23260000
opls_145-76    C    0.02140003    0.02836992    0.34461957    -0.23220000
opls_166-77    C    0.93683994    0.03703005    0.31769979    0.23330000
opls_700-78    C    0.96883988    0.05914992    0.31114070    -0.10610000
opls_234-79    C    0.94877999    0.11445011    0.27038965    0.47750000
opls_234-80    C    0.38193004    0.58216006    0.68515966    0.47880000
opls_234-81    C    0.92291988    0.46892012    0.28512041    0.47130000
opls_700-82    C    0.96280985    0.48396013    0.31649952    -0.10340000
opls_166-83    C    0.01426991    0.44949007    0.36573997    0.23280000
opls_145-84    C    0.94742005    0.53596999    0.29273008    -0.23200000
opls_145-85    C    0.04843984    0.46766010    0.40094016    -0.23200000
opls_166-86    C    0.98174006    0.55400982    0.32547043    0.22910000
opls_700-87    C    0.03246991    0.51993004    0.38422967    -0.10340000
opls_700-88    C    0.43718019    0.54303989    0.69419976    -0.10780000
opls_166-89    C    0.45455008    0.49034978    0.66675045    0.22910000
opls_145-90    C    0.47280005    0.56039002    0.69611030    -0.23260000
opls_145-91    C    0.50665988    0.45595996    0.64183016    -0.23200000
opls_166-92    C    0.52488020    0.52614987    0.66862004    0.23290000
opls_700-93    C    0.54229000    0.47341992    0.64072027    -0.10340000
opls_234-94    C    0.59584013    0.43574994    0.58805978    0.47750000
opls_234-95    C    0.07143003    0.53639003    0.41515975    0.47140000
opls_182-96    C    0.92144992    0.64129991    0.21566047    0.08880000
opls_135-97    C    0.92553997    0.68794018    0.16813005    -0.38180000
opls_182-98    C    0.07749009    0.36060991    0.44570998    0.08880000
opls_135-99    C    0.07891984    0.30984015    0.44619008    -0.37970000
opls_182-100    C    0.84796989    0.05480014    0.30473977    0.08900000
opls_135-101    C    0.79689006    0.10035007    0.25804953    -0.38040000
opls_182-102    C    0.13029996    0.95791994    0.37229058    0.08880000
opls_135-103    C    0.18216014    0.91267989    0.41150954    -0.38160000
opls_182-104    C    0.42790006    0.42753998    0.58119992    0.08900000
opls_135-105    C    0.37799016    0.43245982    0.51486067    -0.38150000
opls_182-106    C    0.54942023    0.59168981    0.72514961    0.08880000
opls_135-107    C    0.59836984    0.59387012    0.72756990    -0.37970000
opls_281-108    O    0.17897009    0.74692998    0.10640969    -0.35120000
opls_281-109    O    0.05651991    0.69370018    0.00616935    -0.34970000
opls_281-110    O    0.22708012    0.57196007    0.16478061    -0.36000000
opls_281-111    O    0.74547003    0.43527008    0.98289978    -0.34970000
opls_281-112    O    0.78870018    0.26134980    0.93281068    -0.35130000
opls_281-113    O    0.91275983    0.31067006    0.80533990    -0.35900000
opls_236-114    O    0.87233011    0.11726000    0.66889963    -0.46130000
opls_236-115    O    0.09903012    0.88961999    0.06521948    -0.41220000
opls_236-116    O    0.97937006    0.38487001    0.72269966    -0.46800000
opls_236-117    O    0.36380991    0.51733018    0.09232001    -0.46380000
opls_236-118    O    0.00242994    0.61390000    0.81521030    -0.45580000
opls_236-119    O    0.60902989    0.49744012    0.01639983    -0.45600000
opls_179-120    O    0.42112999    0.61027008    0.22987017    -0.22210000
opls_179-121    O    0.55451998    0.40418021    0.08232958    -0.22200000
opls_179-122    O    0.95621992    0.93017013    0.94710934    -0.22360000
opls_179-123    O    0.01570000    0.07389009    0.77169017    -0.22380000
opls_179-124    O    0.89302999    0.53076998    0.72228027    -0.22310000
opls_179-125    O    0.09442994    0.46214000    0.95109986    -0.22380000
opls_281-126    O    0.91440006    0.26911009    0.29940072    -0.36500000
opls_281-127    O    0.74498988    0.31511007    0.46858982    -0.35330000
opls_281-128    O    0.79610004    0.44106004    0.45051950    -0.31680000
opls_281-129    O    0.18100010    0.57623014    0.63687943    -0.31670000
opls_281-130    O    0.05886002    0.74840000    0.50842020    -0.34970000
opls_281-131    O    0.23101016    0.70286987    0.63568058    -0.36510000
opls_236-132    O    0.00028002    0.88888996    0.55580942    -0.45760000
opls_236-133    O    0.97400002    0.12958998    0.17764037    -0.46410000
opls_236-134    O    0.36793988    0.62428999    0.60801945    -0.45850000
opls_236-135    O    0.88322983    0.49710010    0.19320001    -0.45650000
opls_236-136    O    0.60527008    0.39717003    0.49194976    -0.46450000
opls_236-137    O    0.11756001    0.50663016    0.38923971    -0.45100000
opls_179-138    O    0.02808994    0.39801986    0.36646013    -0.22380000
opls_179-139    O    0.97000012    0.60452012    0.30242962    -0.22370000
opls_179-140    O    0.88644989    0.06947989    0.26384045    -0.22250000
opls_179-141    O    0.09249996    0.94484016    0.44098941    -0.22370000
opls_179-142    O    0.41649010    0.47687993    0.66099060    -0.22310000
opls_179-143    O    0.56143015    0.54144986    0.65235012    -0.22380000
opls_144-144    H    0.26405024    0.68096987    0.18818009    0.05740000
opls_144-145    H    0.16190002    0.54974003    0.08192997    0.06800000
opls_144-146    H    0.04050017    0.77894975    0.94593026    0.05740000
opls_910-147    H    0.28592012    0.57156990    0.21505045    0.29390000
opls_910-148    H    0.05666017    0.63513989    0.97040010    0.28910000
opls_910-149    H    0.94782019    0.13659973    0.93725024    0.29020000
opls_144-150    H    0.81417011    0.45370989    0.93584946    0.06800000
opls_144-151    H    0.93010988    0.22388003    0.80154001    0.06830000
opls_144-152    H    0.70646992    0.32849006    0.04223938    0.06830000
opls_910-153    H    0.91738021    0.36734980    0.81254007    0.29390000
opls_910-154    H    0.84314006    0.20260008    0.86806989    0.29390000
opls_910-155    H    0.68982993    0.43618006    0.07180963    0.29390000
opls_146-156    H    0.89303010    0.02977007    0.83614995    0.06680000
opls_146-157    H    0.07966019    0.97362990    0.88025045    0.07910000
opls_910-158    H    0.02832008    0.86183996    0.80714030    0.23290000
opls_910-159    H    0.12561012    0.80372002    0.01305039    0.28910000
opls_910-160    H    0.88574009    0.47071009    0.95831980    0.29170000
opls_910-161    H    0.35213017    0.61083986    0.34793936    0.23300000
opls_146-162    H    0.44990008    0.44997020    0.12685935    0.11210000
opls_146-163    H    0.52583000    0.56441017    0.19103954    0.07710000
opls_146-164    H    0.04731990    0.40385993    0.90909065    0.07120000
opls_146-165    H    0.93938024    0.59034980    0.77465976    0.07280000
opls_910-166    H    0.62709027    0.39887981    0.24451056    0.29020000
opls_910-167    H    0.09790993    0.52399002    0.03684949    0.28890000
opls_185-168    H    0.52163994    0.36990004    0.24947965    0.06290000
opls_185-169    H    0.51086017    0.36974995    0.99789036    0.06350000
opls_140-170    H    0.60569023    0.31009986    0.95328011    0.13500000
opls_140-171    H    0.61534990    0.30996019    0.20101020    0.13410000
opls_140-172    H    0.57916993    0.28285013    0.10709031    0.13720000
opls_185-173    H    0.46904007    0.63099001    0.38152978    0.06290000
opls_185-174    H    0.45809991    0.65044992    0.13690061    0.06350000
opls_140-175    H    0.36530994    0.71092985    0.21181963    0.13340000
opls_140-176    H    0.37624002    0.69093988    0.45145006    0.13410000
opls_140-177    H    0.40551998    0.72473998    0.35598960    0.13720000
opls_185-178    H    0.87544992    0.96636990    0.95307959    0.06350000
opls_185-179    H    0.90385006    0.94568001    0.72255986    0.06420000
opls_140-180    H    0.94204003    0.85416993    0.82330007    0.13340000
opls_140-181    H    0.91707995    0.87339984    0.05438040    0.13310000
opls_140-182    H    0.87507002    0.88608981    0.85947036    0.13360000
opls_185-183    H    0.07264990    0.05658997    0.97958988    0.06290000
opls_185-184    H    0.09614028    0.03540972    0.74313944    0.06350000
opls_140-185    H    0.05613019    0.12768986    0.63967957    0.13360000
opls_140-186    H    0.03404993    0.14807999    0.87317030    0.13330000
opls_140-187    H    0.10056018    0.11467988    0.82636992    0.13390000
opls_185-188    H    0.84612018    0.60782989    0.80057980    0.06300000
opls_185-189    H    0.87983994    0.59838990    0.58153035    0.06290000
opls_140-190    H    0.82827014    0.56249003    0.43181940    0.13390000
opls_140-191    H    0.79481004    0.57084985    0.64632056    0.13420000
opls_140-192    H    0.78754010    0.62491980    0.51985941    0.13480000
opls_185-193    H    0.10895012    0.39429982    0.09228047    0.06320000
opls_185-194    H    0.13898014    0.38530978    0.86504946    0.06300000
opls_140-195    H    0.19562990    0.41750994    0.99895930    0.13390000
opls_140-196    H    0.16344017    0.43076986    0.21895060    0.13700000
opls_140-197    H    0.20106001    0.36650995    0.14085018    0.13480000
opls_144-198    H    0.93572014    0.33580981    0.31183968    0.06850000
opls_144-199    H    0.71256006    0.45775994    0.55315048    0.06860000
opls_144-200    H    0.81189005    0.22754013    0.41425037    0.06830000
opls_910-201    H    0.85262996    0.44386986    0.39521985    0.28920000
opls_910-202    H    0.68999995    0.37007987    0.56052998    0.28920000
opls_910-203    H    0.09731006    0.86914020    0.31447037    0.29020000
opls_144-204    H    0.26537991    0.55929989    0.71060948    0.06830000
opls_144-205    H    0.16624007    0.78772007    0.53386013    0.07290000
opls_144-206    H    0.04216023    0.67788981    0.47268060    0.06550000
opls_910-207    H    0.28926011    0.64608008    0.69945974    0.28920000
opls_910-208    H    0.05927995    0.80590990    0.46008066    0.29390000
opls_910-209    H    0.12854009    0.57031016    0.54529935    0.28630000
opls_146-210    H    0.93262993    0.96778000    0.37413052    0.07150000
opls_146-211    H    0.04554022    0.04621984    0.33908001    0.07120000
opls_910-212    H    0.88250023    0.13919978    0.43829941    0.29180000
opls_910-213    H    0.91611991    0.20937000    0.29310992    0.29390000
opls_910-214    H    0.35306014    0.54195978    0.84506014    0.28960000
opls_910-215    H    0.95830992    0.40316989    0.45900042    0.29070000
opls_146-216    H    0.90783999    0.56144012    0.24817066    0.06830000
opls_146-217    H    0.08826014    0.44190984    0.44186066    0.07910000
opls_146-218    H    0.45825996    0.60153004    0.71288998    0.07710000
opls_146-219    H    0.52096990    0.41504000    0.61905058    0.07100000
opls_910-220    H    0.01990003    0.60739982    0.53669981    0.28500000
opls_910-221    H    0.63208022    0.46952978    0.74451056    0.28500000
opls_185-222    H    0.91418988    0.62449011    0.08660958    0.06320000
opls_185-223    H    0.88977011    0.65039994    0.31728040    0.06350000
opls_140-224    H    0.93376010    0.70387007    0.29477052    0.13350000
opls_140-225    H    0.95611988    0.67868997    0.06565016    0.13390000
opls_140-226    H    0.88970985    0.71771021    0.10598042    0.13360000
opls_185-227    H    0.10900019    0.35897993    0.35776034    0.06350000
opls_185-228    H    0.08170993    0.37232010    0.59128072    0.06320000
opls_140-229    H    0.04821009    0.31137990    0.53355936    0.13570000
opls_140-230    H    0.07448000    0.29857001    0.30258071    0.13310000
opls_140-231    H    0.11542990    0.27989009    0.50319976    0.13360000
opls_185-232    H    0.85508001    0.02093994    0.21712055    0.06350000
opls_185-233    H    0.85042015    0.04402997    0.45656036    0.06290000
opls_140-234    H    0.79005027    0.13348978    0.34433998    0.13410000
opls_140-235    H    0.79490000    0.11108994    0.10880033    0.13770000
opls_140-236    H    0.76583005    0.09203991    0.28469961    0.13360000
opls_185-237    H    0.12430999    0.96652013    0.21814996    0.06290000
opls_185-238    H    0.12569008    0.99282000    0.44660947    0.06350000
opls_140-239    H    0.18746010    0.90384996    0.56318044    0.13760000
opls_140-240    H    0.18704991    0.87861999    0.33630952    0.13410000
opls_140-241    H    0.21249985    0.92039020    0.36573008    0.13480000
opls_185-242    H    0.45514988    0.41736999    0.46165936    0.06320000
opls_185-243    H    0.44656999    0.39743979    0.69194044    0.06330000
opls_140-244    H    0.35083023    0.44300983    0.63185950    0.13390000
opls_140-245    H    0.36036992    0.46189997    0.40528935    0.13500000
opls_140-246    H    0.38380984    0.39631008    0.45463994    0.13500000
opls_185-247    H    0.52019003    0.62219982    0.63220970    0.06350000
opls_185-248    H    0.53302012    0.59706009    0.86968954    0.06290000
opls_140-249    H    0.62682994    0.56441990    0.82058042    0.13220000
opls_140-250    H    0.61478004    0.58800994    0.58538955    0.13500000
opls_140-251    H    0.59151009    0.63119986    0.77899059    0.13720000
opls_238-252    N    0.29314988    0.60240021    0.23086004    -0.10240000
opls_238-253    N    0.08557007    0.59743992    0.00075970    -0.10350000
opls_238-254    N    0.91980994    0.14427983    0.83377061    -0.24690000
opls_238-255    N    0.88957015    0.40502995    0.84973975    -0.10350000
opls_238-256    N    0.88029024    0.19412983    0.82738944    -0.10240000
opls_238-257    N    0.68145997    0.40615985    0.08855966    -0.10120000
opls_238-258    N    0.05247012    0.85867988    0.91942986    -0.25360000
opls_238-259    N    0.08906001    0.81014002    0.97274979    -0.10110000
opls_238-260    N    0.90406989    0.44198007    0.85634967    -0.24690000
opls_238-261    N    0.34358005    0.59106014    0.24515023    -0.24700000
opls_238-262    N    0.07466991    0.55851008    0.97057943    -0.24700000
opls_238-263    N    0.63189989    0.41902006    0.13299058    -0.25320000
opls_238-264    N    0.88921016    0.41472991    0.35377970    -0.10170000
opls_238-265    N    0.68349999    0.40755978    0.58351996    -0.10100000
opls_238-266    N    0.07794018    0.86433996    0.42881027    -0.25320000
opls_238-267    N    0.29564023    0.60889981    0.72761933    -0.10100000
opls_238-268    N    0.08913010    0.81482982    0.46666940    -0.10100000
opls_238-269    N    0.09122987    0.59950014    0.51233023    -0.10350000
opls_238-270    N    0.90103003    0.14908991    0.33516997    -0.24680000
opls_238-271    N    0.88741989    0.20005007    0.32589970    -0.10350000
opls_238-272    N    0.34570020    0.57017980    0.74403046    -0.24690000
opls_238-273    N    0.93010994    0.42358012    0.35753017    -0.24380000
opls_238-274    N    0.63503021    0.44496983    0.63457069    -0.24630000
opls_238-275    N    0.05440987    0.58659008    0.46515989    -0.24700000
