#======================================================================
# Crystal Data Generated By AuToFF
#----------------------------------------------------------------------

data_AuToFF_phase_1

_cell_length_a                         46.4130
_cell_length_b                         46.4130
_cell_length_c                         4.4650
_cell_angle_alpha                      90.00
_cell_angle_beta                       90.00
_cell_angle_gamma                      120.00
_symmetry_space_group_name_H-M_alt     'P 1'
_symmetry_space_group_IT_number        1

loop_
_space_group_symop_operation_xyz
   'x, y, z'

loop_
   _atom_site_label
   _atom_site_type_symbol
   _atom_site_fract_x
   _atom_site_fract_y
   _atom_site_fract_z
   _atom_site_charge
opls_141-0    C    0.48474006    0.48620992    0.48266069    -0.00250000
opls_141-1    C    0.51378998    0.99852991    0.48266069    -0.00250000
opls_141-2    C    0.00147005    0.51525992    0.48266069    -0.00250000
opls_141-3    C    0.51525994    0.51379008    0.48266069    -0.00250000
opls_141-4    C    0.48621002    0.00147009    0.48266069    -0.00250000
opls_141-5    C    0.99852995    0.48474008    0.48266069    -0.00250000
opls_145-6    C    0.51973007    0.54732000    0.47664054    0.02880000
opls_145-7    C    0.45267986    0.97240989    0.47664054    0.02880000
opls_145-8    C    0.02758995    0.48026986    0.47664054    0.02880000
opls_145-9    C    0.48026993    0.45268000    0.47664054    0.02880000
opls_145-10    C    0.54732014    0.02759011    0.47664054    0.02880000
opls_145-11    C    0.97240992    0.51972990    0.47664054    0.02880000
opls_145-12    C    0.54628997    0.51247996    0.47791937    0.03240000
opls_145-13    C    0.48751994    0.03381006    0.47791937    0.03240000
opls_145-14    C    0.96619009    0.45370998    0.47791937    0.03240000
opls_145-15    C    0.45371003    0.48752004    0.47791937    0.03240000
opls_145-16    C    0.51248006    0.96618994    0.47791937    0.03240000
opls_145-17    C    0.03380991    0.54629002    0.47791937    0.03240000
opls_145-18    C    0.57160995    0.53279998    0.30655991    -0.23290000
opls_145-19    C    0.46719999    0.03880996    0.30655991    -0.23280000
opls_145-20    C    0.96119005    0.42839006    0.30655991    -0.23290000
opls_145-21    C    0.42839005    0.46720002    0.30655991    -0.23290000
opls_145-22    C    0.53280001    0.96119004    0.30655991    -0.23290000
opls_145-23    C    0.03880995    0.57160994    0.30655991    -0.23290000
opls_145-24    C    0.60076993    0.53203993    0.29905039    -0.23620000
opls_145-25    C    0.46795988    0.06872997    0.29905039    -0.23620000
opls_145-26    C    0.93126985    0.39922985    0.29905039    -0.23620000
opls_145-27    C    0.39923007    0.46796007    0.29905039    -0.23620000
opls_145-28    C    0.53204012    0.93127003    0.29905039    -0.23610000
opls_145-29    C    0.06873003    0.60076990    0.29905039    -0.23620000
opls_145-30    C    0.60521011    0.51088000    0.46404927    0.17800000
opls_145-31    C    0.48912006    0.09433002    0.46404927    0.17800000
opls_145-32    C    0.90567004    0.39478998    0.46404927    0.17810000
opls_145-33    C    0.39478989    0.48912000    0.46404927    0.17800000
opls_145-34    C    0.51087994    0.90566998    0.46404927    0.17800000
opls_145-35    C    0.09432996    0.60521002    0.46404927    0.17800000
opls_145-36    C    0.58017993    0.49066000    0.63438970    -0.23750000
opls_145-37    C    0.50933994    0.08951995    0.63438970    -0.23750000
opls_145-38    C    0.91048013    0.41982006    0.63438970    -0.23750000
opls_145-39    C    0.41982007    0.50934000    0.63438970    -0.23750000
opls_145-40    C    0.49066006    0.91048005    0.63438970    -0.23750000
opls_145-41    C    0.08951987    0.58017994    0.63438970    -0.23750000
opls_145-42    C    0.55130989    0.49184995    0.64410078    -0.23530000
opls_145-43    C    0.50815011    0.05946012    0.64410078    -0.23530000
opls_145-44    C    0.94054000    0.44868993    0.64410078    -0.23530000
opls_145-45    C    0.44869011    0.50815005    0.64410078    -0.23530000
opls_145-46    C    0.49184989    0.94053988    0.64410078    -0.23530000
opls_145-47    C    0.05946000    0.55131007    0.64410078    -0.23530000
opls_145-48    C    0.45947997    0.42898989    0.65636954    -0.23750000
opls_145-49    C    0.57100997    0.03048998    0.65636954    -0.23750000
opls_145-50    C    0.96950993    0.54051988    0.65636954    -0.23750000
opls_145-51    C    0.54051990    0.57100986    0.65636954    -0.23750000
opls_145-52    C    0.42899003    0.96951002    0.65636954    -0.23750000
opls_145-53    C    0.03048994    0.45947987    0.65636954    -0.23750000
opls_145-54    C    0.45516007    0.39750003    0.65107951    -0.24010000
opls_145-55    C    0.60250004    0.05765989    0.65107951    -0.24010000
opls_145-56    C    0.94234011    0.54484008    0.65107951    -0.24010000
opls_145-57    C    0.54483993    0.60249997    0.65107951    -0.24010000
opls_145-58    C    0.39749984    0.94233986    0.65107951    -0.24010000
opls_145-59    C    0.05765989    0.45515992    0.65107951    -0.24010000
opls_145-60    C    0.47177000    0.38926987    0.46800000    0.17750000
opls_145-61    C    0.61073005    0.08249989    0.46800000    0.17750000
opls_145-62    C    0.91750004    0.52822999    0.46800000    0.17750000
opls_145-63    C    0.52822987    0.61072988    0.46800000    0.17750000
opls_145-64    C    0.38926983    0.91749986    0.46800000    0.17750000
opls_145-65    C    0.08249996    0.47177001    0.46800000    0.17750000
opls_145-66    C    0.49166008    0.41258007    0.28206047    -0.24050000
opls_145-67    C    0.58741993    0.07908005    0.28206047    -0.24050000
opls_145-68    C    0.92091999    0.50833988    0.28206047    -0.24050000
opls_145-69    C    0.50833992    0.58741993    0.28206047    -0.24050000
opls_145-70    C    0.41258007    0.92091995    0.28206047    -0.24050000
opls_145-71    C    0.07907989    0.49165987    0.28206047    -0.24050000
opls_145-72    C    0.49550998    0.44380000    0.28614110    -0.23820000
opls_145-73    C    0.55620001    0.05171012    0.28614110    -0.23820000
opls_145-74    C    0.94829001    0.50448988    0.28614110    -0.23820000
opls_145-75    C    0.50449002    0.55620000    0.28614110    -0.23820000
opls_145-76    C    0.44379999    0.94828988    0.28614110    -0.23820000
opls_145-77    C    0.05170986    0.49550987    0.28614110    -0.23820000
opls_142-78    C    0.51035005    0.64986003    0.40027996    0.06420000
opls_142-79    C    0.35014010    0.86049005    0.40027996    0.06420000
opls_142-80    C    0.13950985    0.48964992    0.40027996    0.06420000
opls_142-81    C    0.48964995    0.35013997    0.40027996    0.06420000
opls_142-82    C    0.64985990    0.13950995    0.40027996    0.06420000
opls_142-83    C    0.86049015    0.51035008    0.40027996    0.06420000
opls_142-84    C    0.66311991    0.53198993    0.40098992    0.06430000
opls_142-85    C    0.46801001    0.13113002    0.40098992    0.06430000
opls_142-86    C    0.86887008    0.33688006    0.40098992    0.06430000
opls_142-87    C    0.33688009    0.46801007    0.40098992    0.06430000
opls_142-88    C    0.53198999    0.86886998    0.40098992    0.06430000
opls_142-89    C    0.13112992    0.66311994    0.40098992    0.06430000
opls_567-90    C    0.48289010    0.31631000    0.40350952    -0.03450000
opls_567-91    C    0.68369015    0.16658009    0.40350952    -0.03450000
opls_567-92    C    0.83341997    0.51710991    0.40350952    -0.03450000
opls_567-93    C    0.51710990    0.68369000    0.40350952    -0.03450000
opls_567-94    C    0.31630985    0.83341991    0.40350952    -0.03450000
opls_567-95    C    0.16657991    0.48288984    0.40350952    -0.03450000
opls_567-96    C    0.46043002    0.25631001    0.41180067    -0.02040000
opls_567-97    C    0.74368992    0.20411998    0.41180067    -0.02040000
opls_567-98    C    0.79588006    0.53957000    0.41180067    -0.02040000
opls_567-99    C    0.53956998    0.74368999    0.41180067    -0.02040000
opls_567-100    C    0.25631008    0.79588002    0.41180067    -0.02040000
opls_567-101    C    0.20411994    0.46043000    0.41180067    -0.02040000
opls_716-102    C    0.49408000    0.27411006    0.38466069    0.05070000
opls_716-103    C    0.72589004    0.21997003    0.38466069    0.05070000
opls_716-104    C    0.78002996    0.50591991    0.38466069    0.05070000
opls_716-105    C    0.50592000    0.72588994    0.38466069    0.05070000
opls_716-106    C    0.27410996    0.78002997    0.38466069    0.05070000
opls_716-107    C    0.21997004    0.49408009    0.38466069    0.05070000
opls_716-108    C    0.50649007    0.30897996    0.37800000    -0.19220000
opls_716-109    C    0.69102006    0.19750993    0.37800000    -0.19210000
opls_716-110    C    0.80248996    0.49350986    0.37800000    -0.19220000
opls_716-111    C    0.49350993    0.69102004    0.37800000    -0.19220000
opls_716-112    C    0.30897981    0.80248982    0.37800000    -0.19220000
opls_716-113    C    0.19750991    0.50648989    0.37800000    -0.19220000
opls_145-114    C    0.51273993    0.25869987    0.36909966    -0.19270000
opls_145-115    C    0.74130009    0.25404007    0.36909966    -0.19270000
opls_145-116    C    0.74595998    0.48726006    0.36909966    -0.19270000
opls_145-117    C    0.48725994    0.74129988    0.36909966    -0.19270000
opls_145-118    C    0.25869991    0.74595993    0.36909966    -0.19260000
opls_145-119    C    0.25404002    0.51273994    0.36909966    -0.19270000
opls_567-120    C    0.49620000    0.22456987    0.37935946    -0.02040000
opls_567-121    C    0.77542992    0.27162989    0.37935946    -0.02040000
opls_567-122    C    0.72836995    0.50379999    0.37935946    -0.02040000
opls_567-123    C    0.50379987    0.77542988    0.37935946    -0.02040000
opls_567-124    C    0.22456995    0.72836986    0.37935946    -0.02040000
opls_567-125    C    0.27163005    0.49620001    0.37935946    -0.02040000
opls_716-126    C    0.46246999    0.20668001    0.40062038    0.05070000
opls_716-127    C    0.79332001    0.25579005    0.40062038    0.05070000
opls_716-128    C    0.74421000    0.53752994    0.40062038    0.05070000
opls_716-129    C    0.53753001    0.79331999    0.40062038    0.05080000
opls_716-130    C    0.20667999    0.74420995    0.40062038    0.05070000
opls_716-131    C    0.25579000    0.46247006    0.40062038    0.05070000
opls_145-132    C    0.44382005    0.22213000    0.41879955    -0.19270000
opls_145-133    C    0.77786992    0.22168990    0.41879955    -0.19270000
opls_145-134    C    0.77830991    0.55617985    0.41879955    -0.19270000
opls_145-135    C    0.55617995    0.77787000    0.41879955    -0.19270000
opls_145-136    C    0.22212995    0.77830985    0.41879955    -0.19270000
opls_145-137    C    0.22168997    0.44381990    0.41879955    -0.19270000
opls_716-138    C    0.45019009    0.17178001    0.40582979    -0.19220000
opls_716-139    C    0.82821986    0.27840987    0.40582979    -0.19220000
opls_716-140    C    0.72158992    0.54980988    0.40582979    -0.19200000
opls_716-141    C    0.54980991    0.82821999    0.40582979    -0.19220000
opls_716-142    C    0.17178001    0.72158989    0.40582979    -0.19220000
opls_716-143    C    0.27840996    0.45018988    0.40582979    -0.19220000
opls_567-144    C    0.47411004    0.16473010    0.39421948    -0.03450000
opls_567-145    C    0.83527001    0.30938001    0.39421948    -0.03450000
opls_567-146    C    0.69061995    0.52588989    0.39421948    -0.03450000
opls_567-147    C    0.52588996    0.83526990    0.39421948    -0.03450000
opls_567-148    C    0.16472999    0.69061999    0.39421948    -0.03450000
opls_567-149    C    0.30937993    0.47410986    0.39421948    -0.03450000
opls_750-150    N    0.53262010    0.64303005    0.47055991    -0.31100000
opls_750-151    N    0.35697007    0.88959006    0.47055991    -0.31100000
opls_750-152    N    0.11041005    0.46737989    0.47055991    -0.31100000
opls_750-153    N    0.46737990    0.35696995    0.47055991    -0.31090000
opls_750-154    N    0.64302993    0.11040994    0.47055991    -0.31100000
opls_750-155    N    0.88958983    0.53261986    0.47055991    -0.31090000
opls_750-156    N    0.63408994    0.50821996    0.45468981    -0.31850000
opls_750-157    N    0.49177988    0.12586989    0.45468981    -0.31860000
opls_750-158    N    0.87413005    0.36590990    0.45468981    -0.31850000
opls_750-159    N    0.36591006    0.49178004    0.45468981    -0.31860000
opls_750-160    N    0.50822000    0.87412986    0.45468981    -0.31860000
opls_750-161    N    0.12586982    0.63408985    0.45468981    -0.31860000
opls_633-162    S    0.44186004    0.28140005    0.43759015    0.06810000
opls_633-163    S    0.71860002    0.16045990    0.43759015    0.06810000
opls_633-164    S    0.83953994    0.55814005    0.43759015    0.06810000
opls_633-165    S    0.55813996    0.71859995    0.43759015    0.06810000
opls_633-166    S    0.28139986    0.83953985    0.43759015    0.06820000
opls_633-167    S    0.16046006    0.44185995    0.43759015    0.06810000
opls_633-168    S    0.51516000    0.19981993    0.37111086    0.06810000
opls_633-169    S    0.80018006    0.31533998    0.37111086    0.06810000
opls_633-170    S    0.68466003    0.48483985    0.37111086    0.06810000
opls_633-171    S    0.48483987    0.80017982    0.37111086    0.06810000
opls_633-172    S    0.19981994    0.68466002    0.37111086    0.06810000
opls_633-173    S    0.31533985    0.51515991    0.37111086    0.06810000
opls_146-174    H    0.44681991    0.43497996    0.80182979    0.20220000
opls_146-175    H    0.56502008    0.01184008    0.80182979    0.20220000
opls_146-176    H    0.98816001    0.55317996    0.80182979    0.20220000
opls_146-177    H    0.55318009    0.56502004    0.80182979    0.20220000
opls_146-178    H    0.43497992    0.98815992    0.80182979    0.20220000
opls_146-179    H    0.01183999    0.44682004    0.80182979    0.20220000
opls_146-180    H    0.43934001    0.37965993    0.79305935    0.20340000
opls_146-181    H    0.62034010    0.05968005    0.79305935    0.20330000
opls_146-182    H    0.94032010    0.56066003    0.79305935    0.20330000
opls_146-183    H    0.56065999    0.62034007    0.79305935    0.20330000
opls_146-184    H    0.37965990    0.94031995    0.79305935    0.20330000
opls_146-185    H    0.05967990    0.43933997    0.79305935    0.20330000
opls_146-186    H    0.50380996    0.40659995    0.13152072    0.20210000
opls_146-187    H    0.59339999    0.09720999    0.13152072    0.20210000
opls_146-188    H    0.90279005    0.49619006    0.13152072    0.20210000
opls_146-189    H    0.49619004    0.59340005    0.13152072    0.20210000
opls_146-190    H    0.40660001    0.90279001    0.13152072    0.20210000
opls_146-191    H    0.09720995    0.50380994    0.13152072    0.20210000
opls_146-192    H    0.51072005    0.46140002    0.14393057    0.20310000
opls_146-193    H    0.53860007    0.04932001    0.14393057    0.20310000
opls_146-194    H    0.95067989    0.48927997    0.14393057    0.20320000
opls_146-195    H    0.48927995    0.53859998    0.14393057    0.20310000
opls_146-196    H    0.46139993    0.95067999    0.14393057    0.20310000
opls_146-197    H    0.04932011    0.51072003    0.14393057    0.20310000
opls_570-198    H    0.53207989    0.32699993    0.35554087    0.20350000
opls_570-199    H    0.67300003    0.20508006    0.35554087    0.20350000
opls_570-200    H    0.79492008    0.46792001    0.35554087    0.20350000
opls_570-201    H    0.46792011    0.67300007    0.35554087    0.20350000
opls_570-202    H    0.32699997    0.79491994    0.35554087    0.20350000
opls_570-203    H    0.20507992    0.53207999    0.35554087    0.20350000
opls_146-204    H    0.53905006    0.27264992    0.35120045    0.20350000
opls_146-205    H    0.72734985    0.26639987    0.35120045    0.20350000
opls_146-206    H    0.73359997    0.46094996    0.35120045    0.20350000
opls_146-207    H    0.46094982    0.72734983    0.35120045    0.20350000
opls_146-208    H    0.27265003    0.73359988    0.35120045    0.20350000
opls_146-209    H    0.26640003    0.53905004    0.35120045    0.20360000
opls_146-210    H    0.41752998    0.20818991    0.43888018    0.20350000
opls_146-211    H    0.79181005    0.20934005    0.43888018    0.20350000
opls_146-212    H    0.79065996    0.58247004    0.43888018    0.20350000
opls_146-213    H    0.58246989    0.79180984    0.43888018    0.20350000
opls_146-214    H    0.20818995    0.79065995    0.43888018    0.20350000
opls_146-215    H    0.20934004    0.41752996    0.43888018    0.20350000
opls_570-216    H    0.42456012    0.15359011    0.42126988    0.19720000
opls_570-217    H    0.84641001    0.27097010    0.42126988    0.19720000
opls_570-218    H    0.72902999    0.57544003    0.42126988    0.19720000
opls_570-219    H    0.57543988    0.84640989    0.42126988    0.19720000
opls_570-220    H    0.15358999    0.72902990    0.42126988    0.19720000
opls_570-221    H    0.27097001    0.42455997    0.42126988    0.19720000
opls_144-222    H    0.44342006    0.11097992    0.37202016    0.09890000
opls_144-223    H    0.88902005    0.33243994    0.37202016    0.09890000
opls_144-224    H    0.66755998    0.55657990    0.37202016    0.09890000
opls_144-225    H    0.55657981    0.88901983    0.37202016    0.09890000
opls_144-226    H    0.11097995    0.66756006    0.37202016    0.09890000
opls_144-227    H    0.33243989    0.44341985    0.37202016    0.09890000
opls_144-228    H    0.51388985    0.36940985    0.34694065    0.09910000
opls_144-229    H    0.63059003    0.14447999    0.34694065    0.09910000
opls_144-230    H    0.85552000    0.48610991    0.34694065    0.09910000
opls_144-231    H    0.48611002    0.63058990    0.34694065    0.09910000
opls_144-232    H    0.36940997    0.85552001    0.34694065    0.09910000
opls_144-233    H    0.14447988    0.51388984    0.34694065    0.09910000
opls_146-234    H    0.61940996    0.54734986    0.16036058    0.20270000
opls_146-235    H    0.45264991    0.07206000    0.16036058    0.20270000
opls_146-236    H    0.92794000    0.38058990    0.16036058    0.20280000
opls_146-237    H    0.38058992    0.45264989    0.16036058    0.20260000
opls_146-238    H    0.54735009    0.92794000    0.16036058    0.20270000
opls_146-239    H    0.07205987    0.61940985    0.16036058    0.20270000
opls_146-240    H    0.56867997    0.54907993    0.17619037    0.20290000
opls_146-241    H    0.45091996    0.01960003    0.17619037    0.20290000
opls_146-242    H    0.98040007    0.43132004    0.17619037    0.20300000
opls_146-243    H    0.43132003    0.45092007    0.17619037    0.20290000
opls_146-244    H    0.54908004    0.98039997    0.17619037    0.20290000
opls_146-245    H    0.01959993    0.56867996    0.17619037    0.20290000
opls_146-246    H    0.58314003    0.47403995    0.76137962    0.20270000
opls_146-247    H    0.52595999    0.10910007    0.76137962    0.20270000
opls_146-248    H    0.89089999    0.41685998    0.76137962    0.20270000
opls_146-249    H    0.41685997    0.52596005    0.76137962    0.20270000
opls_146-250    H    0.47404001    0.89089993    0.76137962    0.20280000
opls_146-251    H    0.10910001    0.58314002    0.76137962    0.20270000
opls_146-252    H    0.53259995    0.47603996    0.77651960    0.20210000
opls_146-253    H    0.52396009    0.05656000    0.77651960    0.20210000
opls_146-254    H    0.94343997    0.46740004    0.77651960    0.20210000
opls_146-255    H    0.46740005    0.52396004    0.77651960    0.20210000
opls_146-256    H    0.47603991    0.94344000    0.77651960    0.20210000
opls_146-257    H    0.05656003    0.53259996    0.77651960    0.20210000
