#======================================================================
# Crystal Data Generated By AuToFF
#----------------------------------------------------------------------

data_AuToFF_phase_1

_cell_length_a                         20.9239
_cell_length_b                         20.9239
_cell_length_c                         3.9196
_cell_angle_alpha                      90.00
_cell_angle_beta                       90.00
_cell_angle_gamma                      120.00
_symmetry_space_group_name_H-M_alt     'P 1'
_symmetry_space_group_IT_number        1

loop_
_space_group_symop_operation_xyz
   'x, y, z'

loop_
   _atom_site_label
   _atom_site_type_symbol
   _atom_site_fract_x
   _atom_site_fract_y
   _atom_site_fract_z
   _atom_site_charge
opls_916-0    C    0.37183015    0.62668020    0.85297990    0.17020000
opls_145-1    C    0.44029989    0.65565987    0.02069089    -0.16810000
opls_145-2    C    0.47739007    0.61641014    0.04038933    -0.16820000
opls_145-3    C    0.44702998    0.54521007    0.89855087    0.19850000
opls_145-4    C    0.37933006    0.51705984    0.72506888    -0.16730000
opls_145-5    C    0.34260988    0.55669974    0.70173997    -0.16840000
opls_916-6    C    0.63323974    0.37812979    0.11561894    0.17000000
opls_145-7    C    0.56490992    0.35436020    0.95277069    -0.16290000
opls_145-8    C    0.53258021    0.39806011    0.94886978    -0.11750000
opls_700-9    C    0.56710975    0.46781983    0.10665884    0.05510000
opls_145-10    C    0.63490022    0.49130025    0.27129044    -0.12250000
opls_145-11    C    0.66744007    0.44751976    0.27559955    -0.16620000
opls_142-12    C    0.53451999    0.51508971    0.09967088    0.07160000
opls_916-13    C    0.37332015    0.74515014    0.85297990    0.17020000
opls_145-14    C    0.34433991    0.78463994    0.02069089    -0.16810000
opls_145-15    C    0.38359004    0.86098000    0.04038933    -0.16820000
opls_145-16    C    0.45478987    0.90182019    0.89855087    0.19850000
opls_145-17    C    0.48293972    0.86226969    0.72506888    -0.16730000
opls_145-18    C    0.44329970    0.78590976    0.70173997    -0.16840000
opls_916-19    C    0.62187001    0.25510978    0.11561894    0.17000000
opls_145-20    C    0.64563988    0.21055007    0.95277069    -0.16290000
opls_145-21    C    0.60194004    0.13452016    0.94886978    -0.11750000
opls_700-22    C    0.53217988    0.09929015    0.10665884    0.05510000
opls_145-23    C    0.50869984    0.14359986    0.27129044    -0.12250000
opls_145-24    C    0.55247983    0.21992006    0.27559955    -0.16620000
opls_142-25    C    0.48490977    0.01942979    0.09967088    0.07160000
opls_916-26    C    0.25484997    0.62817021    0.85297990    0.17020000
opls_145-27    C    0.21536020    0.55970019    0.02069089    -0.16800000
opls_145-28    C    0.13901989    0.52260987    0.04038933    -0.16820000
opls_145-29    C    0.09817968    0.55296974    0.89855087    0.19850000
opls_145-30    C    0.13772995    0.62066992    0.72506888    -0.16730000
opls_145-31    C    0.21409014    0.65738995    0.70173997    -0.16840000
opls_916-32    C    0.74488998    0.36675988    0.11561894    0.17000000
opls_145-33    C    0.78944972    0.43508973    0.95277069    -0.16290000
opls_145-34    C    0.86547976    0.46741973    0.94886978    -0.11730000
opls_700-35    C    0.90070990    0.43289003    0.10665884    0.05510000
opls_145-36    C    0.85639994    0.36509989    0.27129044    -0.12250000
opls_145-37    C    0.78008010    0.33256018    0.27559955    -0.16620000
opls_142-38    C    0.98056997    0.46547995    0.09967088    0.07160000
opls_750-39    N    0.47798983    0.49949974    0.91092969    -0.28640000
opls_750-40    N    0.50049993    0.97848971    0.91092969    -0.28640000
opls_750-41    N    0.02150997    0.52201000    0.91092969    -0.28650000
opls_239-42    N    0.66666979    0.33333002    0.11600929    -0.12560000
opls_239-43    N    0.33333021    0.66666998    0.83989948    -0.12220000
opls_146-44    H    0.46453012    0.70984011    0.13806001    0.11460000
opls_146-45    H    0.52957981    0.64107981    0.17815083    0.10700000
opls_146-46    H    0.35684029    0.46312021    0.60431932    0.10600000
opls_146-47    H    0.29058002    0.53325022    0.56489948    0.11410000
opls_146-48    H    0.53734992    0.30091007    0.82779110    0.11380000
opls_146-49    H    0.48057982    0.38011979    0.81605011    0.10720000
opls_146-50    H    0.66190006    0.54423991    0.40394938    0.10770000
opls_146-51    H    0.71979988    0.46693023    0.40555924    0.11330000
opls_144-52    H    0.56150992    0.56429992    0.26511889    0.06100000
opls_146-53    H    0.29016006    0.75469010    0.13806001    0.11450000
opls_146-54    H    0.35891983    0.88850001    0.17815083    0.10700000
opls_146-55    H    0.53688004    0.89372003    0.60431932    0.10600000
opls_146-56    H    0.46675001    0.75733018    0.56489948    0.11410000
opls_146-57    H    0.69909015    0.23643990    0.82779110    0.11380000
opls_146-58    H    0.61988006    0.10046008    0.81605011    0.10720000
opls_146-59    H    0.45575973    0.11765982    0.40394938    0.10770000
opls_146-60    H    0.53306989    0.25286980    0.40555924    0.11330000
opls_144-61    H    0.43569981    0.99720981    0.26511889    0.06100000
opls_146-62    H    0.24530982    0.53546979    0.13806001    0.11450000
opls_146-63    H    0.11149988    0.47042018    0.17815083    0.10700000
opls_146-64    H    0.10627967    0.64315976    0.60431932    0.10600000
opls_146-65    H    0.24267025    0.70942015    0.56489948    0.11410000
opls_146-66    H    0.76355992    0.46265003    0.82779110    0.11380000
opls_146-67    H    0.89954012    0.51942013    0.81605011    0.10720000
opls_146-68    H    0.88233993    0.33809972    0.40394938    0.10770000
opls_146-69    H    0.74713022    0.28019997    0.40555924    0.11330000
opls_144-70    H    0.00278999    0.43848972    0.26511889    0.06100000
