#======================================================================
# Crystal Data Generated By AuToFF
#----------------------------------------------------------------------

data_AuToFF_phase_1

_cell_length_a                         44.9122
_cell_length_b                         44.9122
_cell_length_c                         4.7913
_cell_angle_alpha                      90.00
_cell_angle_beta                       90.00
_cell_angle_gamma                      120.00
_symmetry_space_group_name_H-M_alt     'P 1'
_symmetry_space_group_IT_number        1

loop_
_space_group_symop_operation_xyz
   'x, y, z'

loop_
   _atom_site_label
   _atom_site_type_symbol
   _atom_site_fract_x
   _atom_site_fract_y
   _atom_site_fract_z
   _atom_site_charge
opls_145-0    C    0.03137000    0.49863003    0.11516916    -0.10940000
opls_145-1    C    0.03269003    0.53146989    0.08426940    -0.10970000
opls_916-2    C    0.00133988    0.53393987    0.09771043    0.21830000
opls_916-3    C    0.96386001    0.39768007    0.11216997    0.21770000
opls_916-4    C    0.97014999    0.57057995    0.04450984    0.21770000
opls_145-5    C    0.96509000    0.59569005    0.21042932    -0.10940000
opls_145-6    C    0.93419002    0.59791989    0.17275896    -0.11030000
opls_145-7    C    0.90699993    0.57424005    0.97746958    0.21680000
opls_145-8    C    0.91213988    0.54994985    0.80107069    -0.10930000
opls_145-9    C    0.94406993    0.54915001    0.82594077    -0.10620000
opls_145-10    C    0.93678989    0.39260000    0.32105900    -0.10620000
opls_145-11    C    0.90338998    0.36117008    0.31407969    -0.10900000
opls_145-12    C    0.89708003    0.33323006    0.11339929    0.21760000
opls_145-13    C    0.92550000    0.33661995    0.93081001    -0.11020000
opls_145-14    C    0.95806995    0.36855996    0.92732035    -0.11010000
opls_145-15    C    0.81527995    0.58473983    0.77463945    -0.08470000
opls_145-16    C    0.78673988    0.59146998    0.76288899    -0.08370000
opls_700-17    C    0.75393007    0.56737004    0.90591906    0.07890000
opls_145-18    C    0.75048990    0.53688986    0.05422954    -0.08350000
opls_145-19    C    0.77893005    0.52984990    0.06087909    -0.08450000
opls_700-20    C    0.81182999    0.55426993    0.92210047    0.07900000
opls_142-21    C    0.84304999    0.54889985    0.93355039    0.04300000
opls_142-22    C    0.72324997    0.57372996    0.89796924    0.04760000
opls_145-23    C    0.50137006    0.53273998    0.11516916    -0.10940000
opls_145-24    C    0.46853011    0.50122008    0.08426940    -0.10970000
opls_916-25    C    0.46605997    0.46739989    0.09771043    0.21830000
opls_916-26    C    0.60231992    0.56617991    0.11216997    0.21770000
opls_916-27    C    0.42941994    0.39957002    0.04450984    0.21770000
opls_145-28    C    0.40430999    0.36939991    0.21042932    -0.10940000
opls_145-29    C    0.40207991    0.33627003    0.17275896    -0.11030000
opls_145-30    C    0.42576012    0.33276008    0.97746958    0.21680000
opls_145-31    C    0.45004998    0.36219000    0.80107069    -0.10930000
opls_145-32    C    0.45084999    0.39492008    0.82594077    -0.10620000
opls_145-33    C    0.60740011    0.54419000    0.32105900    -0.10620000
opls_145-34    C    0.63882982    0.54221983    0.31407969    -0.10900000
opls_145-35    C    0.66677013    0.56385006    0.11339929    0.21760000
opls_145-36    C    0.66338003    0.58887994    0.93081001    -0.11020000
opls_145-37    C    0.63143983    0.58950984    0.92732035    -0.11010000
opls_145-38    C    0.41526000    0.23054003    0.77463945    -0.08470000
opls_145-39    C    0.40853006    0.19527005    0.76288899    -0.08370000
opls_700-40    C    0.43263009    0.18655996    0.90591906    0.07890000
opls_145-41    C    0.46311002    0.21359986    0.05422954    -0.08350000
opls_145-42    C    0.47015005    0.24907990    0.06087909    -0.08450000
opls_700-43    C    0.44572990    0.25755988    0.92210047    0.07900000
opls_142-44    C    0.45110001    0.29415009    0.93355039    0.04300000
opls_142-45    C    0.42627010    0.14952008    0.89796924    0.04760000
opls_145-46    C    0.46725994    0.96862999    0.11516916    -0.10940000
opls_145-47    C    0.49878008    0.96731003    0.08426940    -0.10970000
opls_916-48    C    0.53260002    0.99865999    0.09771043    0.21830000
opls_916-49    C    0.43382007    0.03614002    0.11216997    0.21770000
opls_916-50    C    0.60043006    0.02985002    0.04450984    0.21770000
opls_145-51    C    0.63060000    0.03491004    0.21042932    -0.10940000
opls_145-52    C    0.66373007    0.06581007    0.17275896    -0.11030000
opls_145-53    C    0.66723995    0.09299987    0.97746958    0.21680000
opls_145-54    C    0.63781000    0.08785989    0.80107069    -0.10930000
opls_145-55    C    0.60507986    0.05592991    0.82594077    -0.10620000
opls_145-56    C    0.45581001    0.06321000    0.32105900    -0.10620000
opls_145-57    C    0.45777998    0.09661009    0.31407969    -0.10900000
opls_145-58    C    0.43614985    0.10291988    0.11339929    0.21760000
opls_145-59    C    0.41111996    0.07450011    0.93081001    -0.11020000
opls_145-60    C    0.41048987    0.04192995    0.92732035    -0.11010000
opls_145-61    C    0.76945993    0.18471988    0.77463945    -0.08470000
opls_145-62    C    0.80473006    0.21325997    0.76288899    -0.08370000
opls_700-63    C    0.81344006    0.24607001    0.90591906    0.07890000
opls_145-64    C    0.78639996    0.24951003    0.05422954    -0.08350000
opls_145-65    C    0.75091999    0.22106995    0.06087909    -0.08450000
opls_700-66    C    0.74243998    0.18816993    0.92210047    0.07900000
opls_142-67    C    0.70585000    0.15695006    0.93355039    0.04300000
opls_142-68    C    0.85047993    0.27674996    0.89796924    0.04760000
opls_145-69    C    0.96863000    0.50136997    0.11516916    -0.10940000
opls_145-70    C    0.96730984    0.46852985    0.08426940    -0.10970000
opls_916-71    C    0.99865999    0.46605987    0.09771043    0.21830000
opls_916-72    C    0.03613999    0.60231993    0.11216997    0.21770000
opls_916-73    C    0.02985001    0.42942005    0.04450984    0.21780000
opls_145-74    C    0.03491000    0.40430995    0.21042932    -0.10940000
opls_145-75    C    0.06580985    0.40207985    0.17275896    -0.11030000
opls_145-76    C    0.09300007    0.42575995    0.97746958    0.21680000
opls_145-77    C    0.08785999    0.45004989    0.80107069    -0.10930000
opls_145-78    C    0.05593007    0.45084999    0.82594077    -0.10620000
opls_145-79    C    0.06321011    0.60740000    0.32105900    -0.10620000
opls_145-80    C    0.09661002    0.63882992    0.31407969    -0.10890000
opls_145-81    C    0.10291997    0.66676994    0.11339929    0.21760000
opls_145-82    C    0.07450000    0.66338005    0.93081001    -0.11010000
opls_145-83    C    0.04193005    0.63144004    0.92732035    -0.11010000
opls_145-84    C    0.18471992    0.41525991    0.77463945    -0.08470000
opls_145-85    C    0.21326012    0.40853002    0.76288899    -0.08370000
opls_700-86    C    0.24606993    0.43262996    0.90591906    0.07890000
opls_145-87    C    0.24950998    0.46310989    0.05422954    -0.08350000
opls_145-88    C    0.22106982    0.47014985    0.06087909    -0.08450000
opls_700-89    C    0.18817001    0.44573007    0.92210047    0.07900000
opls_142-90    C    0.15694988    0.45109989    0.93355039    0.04300000
opls_142-91    C    0.27675003    0.42627004    0.89796924    0.04760000
opls_145-92    C    0.49862994    0.46726002    0.11516916    -0.10940000
opls_145-93    C    0.53146989    0.49877992    0.08426940    -0.10970000
opls_916-94    C    0.53393990    0.53259986    0.09771043    0.21830000
opls_916-95    C    0.39767995    0.43381983    0.11216997    0.21770000
opls_916-96    C    0.57058006    0.60042998    0.04450984    0.21770000
opls_145-97    C    0.59568988    0.63059984    0.21042932    -0.10940000
opls_145-98    C    0.59792009    0.66372997    0.17275896    -0.11030000
opls_145-99    C    0.57423988    0.66723992    0.97746958    0.21680000
opls_145-100    C    0.54995002    0.63781000    0.80107069    -0.10930000
opls_145-101    C    0.54915001    0.60507992    0.82594077    -0.10620000
opls_145-102    C    0.39259989    0.45581000    0.32105900    -0.10620000
opls_145-103    C    0.36117005    0.45777991    0.31407969    -0.10900000
opls_145-104    C    0.33322987    0.43614994    0.11339929    0.21780000
opls_145-105    C    0.33661997    0.41112006    0.93081001    -0.11020000
opls_145-106    C    0.36856004    0.41048990    0.92732035    -0.11010000
opls_145-107    C    0.58474000    0.76945997    0.77463945    -0.08470000
opls_145-108    C    0.59146994    0.80472995    0.76288899    -0.08370000
opls_700-109    C    0.56736991    0.81344004    0.90591906    0.07890000
opls_145-110    C    0.53688985    0.78639988    0.05422954    -0.08350000
opls_145-111    C    0.52984982    0.75091985    0.06087909    -0.08450000
opls_700-112    C    0.55426997    0.74243986    0.92210047    0.07900000
opls_142-113    C    0.54889999    0.70584991    0.93355039    0.04300000
opls_142-114    C    0.57372990    0.85047992    0.89796924    0.04760000
opls_145-115    C    0.53274006    0.03137001    0.11516916    -0.10940000
opls_145-116    C    0.50121992    0.03268997    0.08426940    -0.10970000
opls_916-117    C    0.46739998    0.00134001    0.09771043    0.21840000
opls_916-118    C    0.56617993    0.96385998    0.11216997    0.21770000
opls_916-119    C    0.39956994    0.97014998    0.04450984    0.21770000
opls_145-120    C    0.36940000    0.96508996    0.21042932    -0.10940000
opls_145-121    C    0.33626993    0.93418993    0.17275896    -0.11030000
opls_145-122    C    0.33275992    0.90699988    0.97746958    0.21680000
opls_145-123    C    0.36218987    0.91213986    0.80107069    -0.10920000
opls_145-124    C    0.39492001    0.94406983    0.82594077    -0.10620000
opls_145-125    C    0.54418999    0.93679000    0.32105900    -0.10620000
opls_145-126    C    0.54222002    0.90338991    0.31407969    -0.10900000
opls_145-127    C    0.56385003    0.89707986    0.11339929    0.21760000
opls_145-128    C    0.58888004    0.92549989    0.93081001    -0.11020000
opls_145-129    C    0.58951000    0.95806979    0.92732035    -0.11010000
opls_145-130    C    0.23053995    0.81527986    0.77463945    -0.08470000
opls_145-131    C    0.19526994    0.78674003    0.76288899    -0.08370000
opls_700-132    C    0.18655994    0.75392999    0.90591906    0.07890000
opls_145-133    C    0.21360004    0.75048997    0.05422954    -0.08350000
opls_145-134    C    0.24908001    0.77893005    0.06087909    -0.08450000
opls_700-135    C    0.25755990    0.81182982    0.92210047    0.07900000
opls_142-136    C    0.29415000    0.84304994    0.93355039    0.04300000
opls_142-137    C    0.14952007    0.72325004    0.89796924    0.04760000
opls_239-138    N    0.99746987    0.43145989    0.08957903    -0.09840000
opls_750-139    N    0.86171994    0.30232001    0.10045917    -0.22690000
opls_750-140    N    0.87502994    0.57636988    0.95584914    -0.21380000
opls_239-141    N    0.56854010    0.56600997    0.08957903    -0.09840000
opls_750-142    N    0.69767991    0.55939988    0.10045917    -0.22700000
opls_750-143    N    0.42363003    0.29865991    0.95584914    -0.21380000
opls_239-144    N    0.43398990    0.00252988    0.08957903    -0.09840000
opls_750-145    N    0.44060015    0.13828011    0.10045917    -0.22700000
opls_750-146    N    0.70133990    0.12496995    0.95584914    -0.21380000
opls_239-147    N    0.00253000    0.56853985    0.08957903    -0.09840000
opls_750-148    N    0.13828006    0.69767999    0.10045917    -0.22700000
opls_750-149    N    0.12496993    0.42362986    0.95584914    -0.21370000
opls_239-150    N    0.43145990    0.43399003    0.08957903    -0.09840000
opls_750-151    N    0.30231996    0.44059986    0.10045917    -0.22700000
opls_750-152    N    0.57636984    0.70133983    0.95584914    -0.21380000
opls_239-153    N    0.56600997    0.99746986    0.08957903    -0.09840000
opls_750-154    N    0.55939985    0.86171989    0.10045917    -0.22700000
opls_750-155    N    0.29865997    0.87502979    0.95584914    -0.21380000
opls_146-156    H    0.05698002    0.49778982    0.15525014    0.04310000
opls_146-157    H    0.05940009    0.55689006    0.04746937    0.04310000
opls_146-158    H    0.98639994    0.61458985    0.37855071    0.04110000
opls_146-159    H    0.93107999    0.61914004    0.30176987    0.04260000
opls_146-160    H    0.89034007    0.53085002    0.63743034    0.04100000
opls_146-161    H    0.94884001    0.53096006    0.66744099    0.04180000
opls_146-162    H    0.94190984    0.41410990    0.49771043    0.04000000
opls_146-163    H    0.88106996    0.35816996    0.47256068    0.04180000
opls_146-164    H    0.92197012    0.31319001    0.78473901    0.04180000
opls_146-165    H    0.98022004    0.37079006    0.77070941    0.04180000
opls_146-166    H    0.84189013    0.60418006    0.66321040    0.04200000
opls_146-167    H    0.72433005    0.51737995    0.17178010    0.04200000
opls_144-168    H    0.83898995    0.52077986    0.92282053    0.02280000
opls_144-169    H    0.72170989    0.59146998    0.71198005    0.01980000
opls_146-170    H    0.79005003    0.61617000    0.63897898    0.04200000
opls_146-171    H    0.77533993    0.50465984    0.17735061    0.04200000
opls_146-172    H    0.50220993    0.55918983    0.15525014    0.04310000
opls_146-173    H    0.44310997    0.50250996    0.04746937    0.04310000
opls_146-174    H    0.38541002    0.37180998    0.37855071    0.04110000
opls_146-175    H    0.38085989    0.31193998    0.30176987    0.04250000
opls_146-176    H    0.46915007    0.35948992    0.63743034    0.04100000
opls_146-177    H    0.46903995    0.41788004    0.66744099    0.04180000
opls_146-178    H    0.58589003    0.52780002    0.49771043    0.04000000
opls_146-179    H    0.64182990    0.52289992    0.47256068    0.04180000
opls_146-180    H    0.68680986    0.60877987    0.78473901    0.04180000
opls_146-181    H    0.62920981    0.60942982    0.77070941    0.04180000
opls_146-182    H    0.39582010    0.23771009    0.66321040    0.04200000
opls_146-183    H    0.48262005    0.20694992    0.17178010    0.04200000
opls_144-184    H    0.47921999    0.31820992    0.92282053    0.02280000
opls_144-185    H    0.40853004    0.13024002    0.71198005    0.01980000
opls_146-186    H    0.38382991    0.17387996    0.63897898    0.04200000
opls_146-187    H    0.49533998    0.27068004    0.17735061    0.04210000
opls_146-188    H    0.44081002    0.94301983    0.15525014    0.04310000
opls_146-189    H    0.49748993    0.94059999    0.04746937    0.04310000
opls_146-190    H    0.62818991    0.01359991    0.37855071    0.04110000
opls_146-191    H    0.68805990    0.06891997    0.30176987    0.04250000
opls_146-192    H    0.64051009    0.10966006    0.63743034    0.04100000
opls_146-193    H    0.58212004    0.05115990    0.66744099    0.04180000
opls_146-194    H    0.47220013    0.05809008    0.49771043    0.04000000
opls_146-195    H    0.47710000    0.11892986    0.47256068    0.04180000
opls_146-196    H    0.39122003    0.07803012    0.78473901    0.04180000
opls_146-197    H    0.39057014    0.01978012    0.77070941    0.04180000
opls_146-198    H    0.76229012    0.15811011    0.66321040    0.04200000
opls_146-199    H    0.79305000    0.27566987    0.17178010    0.04200000
opls_144-200    H    0.68178993    0.16100996    0.92282053    0.02280000
opls_144-201    H    0.86976006    0.27829000    0.71198005    0.01980000
opls_146-202    H    0.82612006    0.20995004    0.63897898    0.04200000
opls_146-203    H    0.72931997    0.22465986    0.17735061    0.04200000
opls_146-204    H    0.94301985    0.50220992    0.15525014    0.04310000
opls_146-205    H    0.94059991    0.44310994    0.04746937    0.04310000
opls_146-206    H    0.01359993    0.38540989    0.37855071    0.04110000
opls_146-207    H    0.06892001    0.38085996    0.30176987    0.04250000
opls_146-208    H    0.10965993    0.46914998    0.63743034    0.04100000
opls_146-209    H    0.05115999    0.46903994    0.66744099    0.04180000
opls_146-210    H    0.05809003    0.58588985    0.49771043    0.04000000
opls_146-211    H    0.11893004    0.64183004    0.47256068    0.04180000
opls_146-212    H    0.07802988    0.68680999    0.78473901    0.04180000
opls_146-213    H    0.01977996    0.62920994    0.77070941    0.04180000
opls_146-214    H    0.15810987    0.39581994    0.66321040    0.04200000
opls_146-215    H    0.27566995    0.48262005    0.17178010    0.04200000
opls_144-216    H    0.16100992    0.47921988    0.92282053    0.02280000
opls_144-217    H    0.27829011    0.40853002    0.71198005    0.01980000
opls_146-218    H    0.20994997    0.38383000    0.63897898    0.04200000
opls_146-219    H    0.22465995    0.49533990    0.17735061    0.04200000
opls_146-220    H    0.49778994    0.44080991    0.15525014    0.04310000
opls_146-221    H    0.55689003    0.49749004    0.04746937    0.04310000
opls_146-222    H    0.61458998    0.62819002    0.37855071    0.04110000
opls_146-223    H    0.61914011    0.68806002    0.30176987    0.04250000
opls_146-224    H    0.53084981    0.64050982    0.63743034    0.04100000
opls_146-225    H    0.53096005    0.58211996    0.66744099    0.04180000
opls_146-226    H    0.41410997    0.47219998    0.49771043    0.04000000
opls_146-227    H    0.35817010    0.47710008    0.47256068    0.04180000
opls_146-228    H    0.31319002    0.39121987    0.78473901    0.04180000
opls_146-229    H    0.37079006    0.39056992    0.77070941    0.04190000
opls_146-230    H    0.60417990    0.76228991    0.66321040    0.04200000
opls_146-231    H    0.51737982    0.79304982    0.17178010    0.04200000
opls_144-232    H    0.52077988    0.68178982    0.92282053    0.02280000
opls_144-233    H    0.59146996    0.86975998    0.71198005    0.01980000
opls_146-234    H    0.61617009    0.82612004    0.63897898    0.04200000
opls_146-235    H    0.50466002    0.72931996    0.17735061    0.04200000
opls_146-236    H    0.55918986    0.05697991    0.15525014    0.04310000
opls_146-237    H    0.50251007    0.05940001    0.04746937    0.04310000
opls_146-238    H    0.37180996    0.98639983    0.37855071    0.04110000
opls_146-239    H    0.31194010    0.93108003    0.30176987    0.04250000
opls_146-240    H    0.35948991    0.89033994    0.63743034    0.04100000
opls_146-241    H    0.41787983    0.94883984    0.66744099    0.04180000
opls_146-242    H    0.52779987    0.94190992    0.49771043    0.04000000
opls_146-243    H    0.52289987    0.88106988    0.47256068    0.04180000
opls_146-244    H    0.60877997    0.92196988    0.78473901    0.04180000
opls_146-245    H    0.60942986    0.98021988    0.77070941    0.04180000
opls_146-246    H    0.23770988    0.84188989    0.66321040    0.04200000
opls_146-247    H    0.20694987    0.72432987    0.17178010    0.04200000
opls_144-248    H    0.31821007    0.83899004    0.92282053    0.02280000
opls_144-249    H    0.13023994    0.72171000    0.71198005    0.01980000
opls_146-250    H    0.17387994    0.79004996    0.63897898    0.04200000
opls_146-251    H    0.27067990    0.77533988    0.17735061    0.04200000
