#======================================================================
# Crystal Data Generated By AuToFF
#----------------------------------------------------------------------

data_AuToFF_phase_1

_cell_length_a                         44.4500
_cell_length_b                         44.4500
_cell_length_c                         3.5800
_cell_angle_alpha                      90.00
_cell_angle_beta                       90.00
_cell_angle_gamma                      120.00
_symmetry_space_group_name_H-M_alt     'P 1'
_symmetry_space_group_IT_number        1

loop_
_space_group_symop_operation_xyz
   'x, y, z'

loop_
   _atom_site_label
   _atom_site_type_symbol
   _atom_site_fract_x
   _atom_site_fract_y
   _atom_site_fract_z
   _atom_site_charge
opls_520-0    N    0.67916991    0.31148988    0.47065922    -0.51720000
opls_750-1    N    0.87188995    0.43257991    0.43484078    -0.33970000
opls_520-2    N    0.68850998    0.36768002    0.47065922    -0.51720000
opls_750-3    N    0.56741986    0.43930990    0.43484078    -0.33970000
opls_520-4    N    0.63232011    0.32083010    0.47065922    -0.51720000
opls_750-5    N    0.56069006    0.12810993    0.43484078    -0.33970000
opls_520-6    N    0.32082996    0.68850986    0.47065922    -0.51720000
opls_750-7    N    0.12811005    0.56742009    0.43484078    -0.33970000
opls_520-8    N    0.31149002    0.63231998    0.47065922    -0.51720000
opls_750-9    N    0.43258014    0.56069010    0.43484078    -0.33970000
opls_520-10    N    0.36767989    0.67916990    0.47065922    -0.51720000
opls_750-11    N    0.43930994    0.87189007    0.43484078    -0.33970000
opls_531-12    C    0.70208996    0.34622987    0.47077095    0.29800000
opls_700-13    C    0.73841008    0.35945009    0.47281006    0.00720000
opls_523-14    C    0.75241996    0.33718008    0.51508101    -0.19360000
opls_145-15    C    0.78851985    0.35030990    0.52032123    -0.21810000
opls_700-16    C    0.81214998    0.38629006    0.48253073    0.04520000
opls_145-17    C    0.79832003    0.40864007    0.43841061    -0.19360000
opls_523-18    C    0.76220013    0.39548012    0.43401955    -0.19360000
opls_142-19    C    0.84819996    0.39870003    0.49129888    0.09720000
opls_700-20    C    0.98156000    0.48996995    0.43593017    0.06870000
opls_145-21    C    0.96084004    0.50457997    0.32996927    -0.19390000
opls_145-22    C    0.92432998    0.48483004    0.33446089    -0.22480000
opls_145-23    C    0.90709996    0.44956011    0.43922067    0.18850000
opls_145-24    C    0.92738998    0.43455004    0.54277933    -0.22490000
opls_145-25    C    0.96388993    0.45448986    0.54317039    -0.19390000
opls_531-26    C    0.65377004    0.35585999    0.47077095    0.29800000
opls_700-27    C    0.64054996    0.37895998    0.47281006    0.00720000
opls_523-28    C    0.66281996    0.41523992    0.51508101    -0.19360000
opls_145-29    C    0.64968993    0.43821001    0.52032123    -0.21810000
opls_700-30    C    0.61371000    0.42586004    0.48253073    0.04520000
opls_145-31    C    0.59135997    0.38968012    0.43841061    -0.19360000
opls_523-32    C    0.60451990    0.36671989    0.43401955    -0.19360000
opls_142-33    C    0.60130011    0.44950010    0.49129888    0.09720000
opls_700-34    C    0.51003005    0.49158991    0.43593017    0.06870000
opls_145-35    C    0.49541997    0.45625997    0.32996927    -0.19390000
opls_145-36    C    0.51517005    0.43950006    0.33446089    -0.22480000
opls_145-37    C    0.55043991    0.45753988    0.43922067    0.18850000
opls_145-38    C    0.56544990    0.49283995    0.54277933    -0.22490000
opls_145-39    C    0.54550995    0.50940009    0.54317039    -0.19390000
opls_531-40    C    0.64413986    0.29790988    0.47077095    0.29800000
opls_700-41    C    0.62103996    0.26158993    0.47281006    0.00720000
opls_523-42    C    0.58476008    0.24758000    0.51508101    -0.19360000
opls_145-43    C    0.56178999    0.21148009    0.52032123    -0.21810000
opls_700-44    C    0.57414002    0.18784990    0.48253073    0.04520000
opls_145-45    C    0.61032012    0.20168007    0.43841061    -0.19360000
opls_523-46    C    0.63327997    0.23779999    0.43401955    -0.19360000
opls_142-47    C    0.55050006    0.15180012    0.49129888    0.09720000
opls_700-48    C    0.50841004    0.01843988    0.43593017    0.06870000
opls_145-49    C    0.54373999    0.03916006    0.32996927    -0.19390000
opls_145-50    C    0.56049997    0.07566990    0.33446089    -0.22470000
opls_145-51    C    0.54245990    0.09290001    0.43922067    0.18850000
opls_145-52    C    0.50715990    0.07261001    0.54277933    -0.22490000
opls_145-53    C    0.49060013    0.03611004    0.54317039    -0.19390000
opls_531-54    C    0.29790991    0.65376987    0.47077095    0.29800000
opls_700-55    C    0.26158992    0.64054991    0.47281006    0.00720000
opls_523-56    C    0.24758004    0.66281992    0.51508101    -0.19360000
opls_145-57    C    0.21148015    0.64969010    0.52032123    -0.21800000
opls_700-58    C    0.18785002    0.61370994    0.48253073    0.04520000
opls_145-59    C    0.20167997    0.59135993    0.43841061    -0.19350000
opls_523-60    C    0.23779987    0.60451988    0.43401955    -0.19360000
opls_142-61    C    0.15180004    0.60129997    0.49129888    0.09720000
opls_700-62    C    0.01844000    0.51003005    0.43593017    0.06870000
opls_145-63    C    0.03915996    0.49542003    0.32996927    -0.19390000
opls_145-64    C    0.07567002    0.51516996    0.33446089    -0.22480000
opls_145-65    C    0.09290004    0.55043989    0.43922067    0.18850000
opls_145-66    C    0.07261002    0.56544996    0.54277933    -0.22490000
opls_145-67    C    0.03610994    0.54550988    0.54317039    -0.19390000
opls_531-68    C    0.34622996    0.64414001    0.47077095    0.29800000
opls_700-69    C    0.35945004    0.62104002    0.47281006    0.00720000
opls_523-70    C    0.33718004    0.58476008    0.51508101    -0.19360000
opls_145-71    C    0.35031007    0.56178999    0.52032123    -0.21810000
opls_700-72    C    0.38629000    0.57413996    0.48253073    0.04520000
opls_145-73    C    0.40864003    0.61031988    0.43841061    -0.19360000
opls_523-74    C    0.39548010    0.63328011    0.43401955    -0.19360000
opls_142-75    C    0.39869989    0.55049990    0.49129888    0.09720000
opls_700-76    C    0.48996995    0.50841009    0.43593017    0.06870000
opls_145-77    C    0.50458003    0.54374003    0.32996927    -0.19380000
opls_145-78    C    0.48482995    0.56049994    0.33446089    -0.22480000
opls_145-79    C    0.44956009    0.54246012    0.43922067    0.18870000
opls_145-80    C    0.43455010    0.50716005    0.54277933    -0.22490000
opls_145-81    C    0.45449005    0.49059991    0.54317039    -0.19390000
opls_531-82    C    0.35586001    0.70208987    0.47077095    0.29810000
opls_700-83    C    0.37896004    0.73841007    0.47281006    0.00720000
opls_523-84    C    0.41523992    0.75242000    0.51508101    -0.19360000
opls_145-85    C    0.43821001    0.78851991    0.52032123    -0.21810000
opls_700-86    C    0.42585998    0.81215010    0.48253073    0.04520000
opls_145-87    C    0.38967988    0.79831993    0.43841061    -0.19360000
opls_523-88    C    0.36672003    0.76220001    0.43401955    -0.19360000
opls_142-89    C    0.44949994    0.84819988    0.49129888    0.09730000
opls_700-90    C    0.49158983    0.98155986    0.43593017    0.06870000
opls_145-91    C    0.45626001    0.96083994    0.32996927    -0.19390000
opls_145-92    C    0.43950003    0.92433010    0.33446089    -0.22480000
opls_145-93    C    0.45754010    0.90709999    0.43922067    0.18850000
opls_145-94    C    0.49284010    0.92738999    0.54277933    -0.22490000
opls_145-95    C    0.50939987    0.96388996    0.54317039    -0.19390000
opls_526-96    H    0.73651993    0.31093007    0.54429050    0.21080000
opls_146-97    H    0.79735992    0.33332996    0.55255866    0.21090000
opls_146-98    H    0.81436013    0.43487009    0.40955866    0.21070000
opls_526-99    H    0.75358015    0.41278011    0.40136034    0.21070000
opls_144-100    H    0.85662002    0.38146006    0.54086034    0.10230000
opls_146-101    H    0.97205990    0.52987999    0.24448883    0.21070000
opls_146-102    H    0.91035011    0.49645004    0.25791899    0.21070000
opls_146-103    H    0.91596995    0.40913001    0.62244972    0.21070000
opls_146-104    H    0.97741008    0.44265009    0.62763966    0.21070000
opls_526-105    H    0.68906985    0.42558988    0.54429050    0.21070000
opls_146-106    H    0.66666995    0.46403010    0.55255866    0.21100000
opls_146-107    H    0.56512989    0.37948992    0.40955866    0.21070000
opls_526-108    H    0.58722005    0.34080005    0.40136034    0.21070000
opls_144-109    H    0.61853991    0.47515991    0.54086034    0.10280000
opls_146-110    H    0.47011987    0.44217990    0.24448883    0.21070000
opls_146-111    H    0.50355000    0.41390000    0.25791899    0.21070000
opls_146-112    H    0.59086995    0.50684001    0.62244972    0.21070000
opls_146-113    H    0.55735001    0.53475986    0.62763966    0.21070000
opls_526-114    H    0.57440999    0.26348006    0.54429050    0.21070000
opls_146-115    H    0.53596991    0.20263994    0.55255866    0.21090000
opls_146-116    H    0.62050999    0.18563999    0.40955866    0.21070000
opls_526-117    H    0.65920015    0.24642010    0.40136034    0.21070000
opls_144-118    H    0.52484007    0.14338003    0.54086034    0.10240000
opls_146-119    H    0.55782000    0.02794012    0.24448883    0.21070000
opls_146-120    H    0.58609990    0.08964996    0.25791899    0.21070000
opls_146-121    H    0.49316010    0.08402999    0.62244972    0.21070000
opls_146-122    H    0.46524013    0.02259005    0.62763966    0.21070000
opls_526-123    H    0.26348007    0.68906993    0.54429050    0.21070000
opls_146-124    H    0.20264008    0.66667004    0.55255866    0.21090000
opls_146-125    H    0.18563987    0.56512991    0.40955866    0.21070000
opls_526-126    H    0.24641985    0.58721989    0.40136034    0.21070000
opls_144-127    H    0.14337998    0.61853994    0.54086034    0.10230000
opls_146-128    H    0.02794010    0.47012001    0.24448883    0.21070000
opls_146-129    H    0.08964989    0.50354996    0.25791899    0.21070000
opls_146-130    H    0.08403005    0.59086999    0.62244972    0.21070000
opls_146-131    H    0.02258992    0.55734991    0.62763966    0.21070000
opls_526-132    H    0.31093002    0.57440986    0.54429050    0.21070000
opls_146-133    H    0.33333005    0.53596990    0.55255866    0.21100000
opls_146-134    H    0.43487011    0.62051008    0.40955866    0.21070000
opls_526-135    H    0.41277995    0.65919995    0.40136034    0.21070000
opls_144-136    H    0.38146009    0.52484009    0.54086034    0.10280000
opls_146-137    H    0.52988013    0.55782010    0.24448883    0.21070000
opls_146-138    H    0.49645000    0.58610000    0.25791899    0.21080000
opls_146-139    H    0.40913005    0.49315999    0.62244972    0.21070000
opls_146-140    H    0.44264986    0.46523988    0.62763966    0.21070000
opls_526-141    H    0.42559001    0.73651994    0.54429050    0.21070000
opls_146-142    H    0.46403009    0.79736006    0.55255866    0.21090000
opls_146-143    H    0.37949001    0.81436001    0.40955866    0.21070000
opls_526-144    H    0.34079985    0.75357990    0.40136034    0.21080000
opls_144-145    H    0.47515993    0.85661997    0.54086034    0.10230000
opls_146-146    H    0.44218000    0.97205988    0.24448883    0.21070000
opls_146-147    H    0.41390010    0.91035004    0.25791899    0.21070000
opls_146-148    H    0.50683990    0.91597001    0.62244972    0.21070000
opls_146-149    H    0.53475987    0.97740995    0.62763966    0.21070000
