#======================================================================
# Crystal Data Generated By AuToFF
#----------------------------------------------------------------------

data_AuToFF_phase_1

_cell_length_a                         34.2890
_cell_length_b                         34.2890
_cell_length_c                         3.9653
_cell_angle_alpha                      90.00
_cell_angle_beta                       90.00
_cell_angle_gamma                      120.00
_symmetry_space_group_name_H-M_alt     'P 1'
_symmetry_space_group_IT_number        1

loop_
_space_group_symop_operation_xyz
   'x, y, z'

loop_
   _atom_site_label
   _atom_site_type_symbol
   _atom_site_fract_x
   _atom_site_fract_y
   _atom_site_fract_z
   _atom_site_charge
opls_280-0    C    0.68499990    0.38016983    0.00000000    0.25300000
opls_280-1    C    0.61982987    0.30482991    0.00000000    0.25300000
opls_280-2    C    0.69517006    0.31499992    0.00000000    0.25300000
opls_280-3    C    0.31499993    0.61982984    0.00000000    0.25300000
opls_280-4    C    0.38016996    0.69516975    0.00000000    0.25300000
opls_280-5    C    0.30482977    0.68499974    0.00000000    0.25300000
opls_700-6    C    0.63735009    0.35215010    0.00000000    -0.23150000
opls_700-7    C    0.64785013    0.28520011    0.00000000    -0.23160000
opls_700-8    C    0.71479977    0.36264979    0.00000000    -0.23160000
opls_700-9    C    0.36264991    0.64784990    0.00000000    -0.23160000
opls_700-10    C    0.35214987    0.71479989    0.00000000    -0.23160000
opls_700-11    C    0.28520006    0.63734987    0.00000000    -0.23160000
opls_142-12    C    0.60688989    0.36904006    0.00000000    0.09990000
opls_142-13    C    0.63096003    0.23784995    0.00000000    0.09990000
opls_142-14    C    0.76215008    0.39310999    0.00000000    0.09990000
opls_142-15    C    0.39311011    0.63095994    0.00000000    0.09990000
opls_142-16    C    0.36903980    0.76214971    0.00000000    0.09990000
opls_142-17    C    0.23784992    0.60689001    0.00000000    0.09990000
opls_916-18    C    0.59458992    0.43380990    0.00000000    0.18080000
opls_916-19    C    0.56619017    0.16078013    0.00000000    0.18080000
opls_916-20    C    0.83921990    0.40540997    0.00000000    0.18080000
opls_916-21    C    0.40540991    0.56618976    0.00000000    0.18080000
opls_916-22    C    0.43380983    0.83921987    0.00000000    0.18080000
opls_916-23    C    0.16078010    0.59459003    0.00000000    0.18080000
opls_145-24    C    0.54701988    0.41145002    0.00000000    -0.22320000
opls_145-25    C    0.58854994    0.13556995    0.00000000    -0.22320000
opls_145-26    C    0.86442988    0.45298003    0.00000000    -0.22320000
opls_145-27    C    0.45298012    0.58854998    0.00000000    -0.22320000
opls_145-28    C    0.41144989    0.86442971    0.00000000    -0.22320000
opls_145-29    C    0.13557012    0.54701997    0.00000000    -0.22320000
opls_149-30    C    0.52623990    0.51199977    0.00000000    -0.20740000
opls_149-31    C    0.48799989    0.01424004    0.00000000    -0.20740000
opls_149-32    C    0.98576004    0.47375986    0.00000000    -0.20740000
opls_149-33    C    0.47375993    0.48799989    0.00000000    -0.20740000
opls_149-34    C    0.51200011    0.98575996    0.00000000    -0.20740000
opls_149-35    C    0.01423980    0.52623981    0.00000000    -0.20740000
opls_700-36    C    0.54799998    0.48362982    0.00000000    0.10460000
opls_700-37    C    0.51637007    0.06437011    0.00000000    0.10460000
opls_700-38    C    0.93562995    0.45200007    0.00000000    0.10510000
opls_700-39    C    0.45199985    0.51636984    0.00000000    0.10460000
opls_700-40    C    0.48362993    0.93562989    0.00000000    0.10460000
opls_700-41    C    0.06437005    0.54799993    0.00000000    0.10510000
opls_145-42    C    0.59558003    0.50577990    0.00000000    -0.19230000
opls_145-43    C    0.49421982    0.08979985    0.00000000    -0.19230000
opls_145-44    C    0.91019998    0.40441991    0.00000000    -0.19230000
opls_145-45    C    0.40441981    0.49421976    0.00000000    -0.19230000
opls_145-46    C    0.50578001    0.91019981    0.00000000    -0.19230000
opls_145-47    C    0.08979985    0.59557975    0.00000000    -0.19230000
opls_145-48    C    0.52413004    0.43596985    0.00000000    -0.19230000
opls_145-49    C    0.56403006    0.08815985    0.00000000    -0.19220000
opls_145-50    C    0.91184994    0.47586997    0.00000000    -0.19230000
opls_145-51    C    0.47588000    0.56402982    0.00000000    -0.19230000
opls_145-52    C    0.43596978    0.91183981    0.00000000    -0.19230000
opls_145-53    C    0.08815006    0.52413003    0.00000000    -0.19230000
opls_145-54    C    0.61845004    0.48126007    0.00000000    -0.22310000
opls_145-55    C    0.51873998    0.13719008    0.00000000    -0.22320000
opls_145-56    C    0.86280998    0.38154985    0.00000000    -0.22310000
opls_145-57    C    0.38154996    0.51873993    0.00000000    -0.22320000
opls_145-58    C    0.48126002    0.86280992    0.00000000    -0.22320000
opls_145-59    C    0.13718985    0.61844981    0.00000000    -0.22320000
opls_238-60    N    0.61979995    0.41343991    0.00000000    -0.31480000
opls_238-61    N    0.58656007    0.20635996    0.00000000    -0.31480000
opls_238-62    N    0.79363981    0.38019980    0.00000000    -0.31480000
opls_238-63    N    0.38019988    0.58655976    0.00000000    -0.31480000
opls_238-64    N    0.41343976    0.79363970    0.00000000    -0.31470000
opls_238-65    N    0.20636002    0.61979987    0.00000000    -0.31460000
opls_146-66    H    0.61409975    0.54020976    0.00000000    0.21290000
opls_146-67    H    0.45978986    0.07388984    0.00000000    0.21290000
opls_146-68    H    0.92610993    0.38590005    0.00000000    0.21300000
opls_146-69    H    0.38590008    0.45978990    0.00000000    0.21290000
opls_146-70    H    0.54020997    0.92610982    0.00000000    0.21290000
opls_146-71    H    0.07389007    0.61409995    0.00000000    0.21290000
opls_144-72    H    0.42689010    0.65380003    0.00000000    0.10390000
opls_144-73    H    0.34619993    0.77308988    0.00000000    0.10380000
opls_144-74    H    0.22690980    0.57310975    0.00000000    0.10380000
opls_144-75    H    0.57310990    0.34619997    0.00000000    0.10380000
opls_144-76    H    0.65380007    0.22691012    0.00000000    0.10380000
opls_144-77    H    0.77309003    0.42688991    0.00000000    0.10380000
opls_146-78    H    0.47152981    0.62281989    0.00000000    0.21290000
opls_146-79    H    0.37718009    0.84870997    0.00000000    0.21290000
opls_146-80    H    0.15128993    0.52846980    0.00000000    0.21300000
opls_146-81    H    0.52847002    0.37717978    0.00000000    0.21290000
opls_146-82    H    0.62281991    0.15129003    0.00000000    0.21290000
opls_146-83    H    0.84870990    0.47152986    0.00000000    0.21290000
opls_146-84    H    0.51021998    0.58163976    0.00000000    0.21300000
opls_146-85    H    0.41836007    0.92857992    0.00000000    0.21290000
opls_146-86    H    0.07142007    0.48977998    0.00000000    0.21290000
opls_146-87    H    0.48977985    0.41835990    0.00000000    0.21300000
opls_146-88    H    0.58163993    0.07142008    0.00000000    0.21290000
opls_146-89    H    0.92857993    0.51022002    0.00000000    0.21290000
opls_146-90    H    0.34708984    0.50161996    0.00000000    0.21290000
opls_146-91    H    0.49837989    0.84545995    0.00000000    0.21290000
opls_146-92    H    0.15452989    0.65290999    0.00000000    0.21290000
opls_146-93    H    0.65292008    0.49838004    0.00000000    0.21290000
opls_146-94    H    0.50162011    0.15454005    0.00000000    0.21290000
opls_146-95    H    0.84547011    0.34709001    0.00000000    0.21290000
opls_910-96    H    0.65219003    0.43333979    0.00000000    0.25530000
opls_910-97    H    0.56665999    0.21884011    0.00000000    0.25510000
opls_910-98    H    0.78116009    0.34781000    0.00000000    0.25520000
opls_910-99    H    0.34780980    0.56665988    0.00000000    0.25520000
opls_910-100    H    0.43334001    0.78115989    0.00000000    0.25510000
opls_910-101    H    0.21883991    0.65219000    0.00000000    0.25520000
opls_702-102    H    0.46137993    0.46614986    0.21969082    0.08730000
opls_702-103    H    0.53384987    0.99522986    0.21969082    0.08730000
opls_702-104    H    0.00477003    0.53861994    0.21969082    0.08730000
opls_702-105    H    0.53861991    0.53384980    0.21969082    0.08730000
opls_702-106    H    0.46615013    0.00477014    0.21969082    0.08730000
opls_702-107    H    0.99522997    0.46138006    0.21969082    0.08730000
opls_702-108    H    0.53861991    0.53384980    0.78030918    0.08730000
opls_702-109    H    0.46615013    0.00477014    0.78030918    0.08730000
opls_702-110    H    0.99522997    0.46138006    0.78030918    0.08730000
opls_702-111    H    0.46137993    0.46614986    0.78030918    0.08730000
opls_702-112    H    0.53384987    0.99522986    0.78030918    0.08730000
opls_702-113    H    0.00477003    0.53861994    0.78030918    0.08730000
opls_281-114    O    0.70223009    0.42226997    0.00000000    -0.43900000
opls_281-115    O    0.57772994    0.27995986    0.00000000    -0.43900000
opls_281-116    O    0.72003981    0.29776984    0.00000000    -0.43910000
opls_281-117    O    0.29776991    0.57773003    0.00000000    -0.43900000
opls_281-118    O    0.42226989    0.72003980    0.00000000    -0.43910000
opls_281-119    O    0.27996002    0.70222983    0.00000000    -0.43910000
