#======================================================================
# Crystal Data Generated By AuToFF
#----------------------------------------------------------------------

data_AuToFF_phase_1

_cell_length_a                         19.4286
_cell_length_b                         19.4372
_cell_length_c                         11.4218
_cell_angle_alpha                      90.00
_cell_angle_beta                       90.00
_cell_angle_gamma                      120.00
_symmetry_space_group_name_H-M_alt     'P 1'
_symmetry_space_group_IT_number        1

loop_
_space_group_symop_operation_xyz
   'x, y, z'

loop_
   _atom_site_label
   _atom_site_type_symbol
   _atom_site_fract_x
   _atom_site_fract_y
   _atom_site_fract_z
   _atom_site_charge
opls_700-0    C    0.99744977    0.07229977    0.25229036    -0.02930000
opls_700-1    C    0.99482992    0.14713977    0.24023972    0.06050000
opls_700-2    C    0.99170966    0.28932978    0.20934966    0.06110000
opls_145-3    C    0.96240999    0.23083970    0.12200967    -0.12270000
opls_145-4    C    0.96464001    0.16081996    0.13719029    -0.12920000
opls_145-5    C    0.82536004    0.02392012    0.34878040    -0.13100000
opls_145-6    C    0.75191979    0.02053988    0.35066014    -0.12130000
opls_145-7    C    0.60092976    0.01813984    0.16332014    -0.12240000
opls_145-8    C    0.52939990    0.01895015    0.16635031    -0.17330000
opls_700-9    C    0.07137969    0.07469980    0.25360976    -0.02990000
opls_700-10    C    0.14684988    0.15232004    0.25723003    0.06910000
opls_700-11    C    0.15130979    0.00561988    0.24300986    0.06300000
opls_145-12    C    0.02426018    0.20537025    0.32816018    -0.13380000
opls_145-13    C    0.02292018    0.27624010    0.31270027    -0.13460000
opls_700-14    C    0.29597992    0.00745020    0.21180024    0.05780000
opls_145-15    C    0.26716003    0.03723020    0.12468000    -0.12300000
opls_145-16    C    0.19526994    0.03562978    0.14008037    -0.13170000
opls_145-17    C    0.19497018    0.17249991    0.35645958    -0.13650000
opls_145-18    C    0.26648010    0.24421987    0.36235007    -0.11950000
opls_700-19    C    0.29219027    0.29806019    0.26801993    0.06560000
opls_145-20    C    0.24280015    0.27782982    0.16837013    -0.13470000
opls_145-21    C    0.17080027    0.20573025    0.16323959    -0.12900000
opls_700-22    C    0.36984013    0.37440021    0.27432016    0.06650000
opls_142-23    C    0.37167975    0.00893002    0.19139978    0.06840000
opls_145-24    C    0.38230002    0.44210012    0.21123028    -0.13480000
opls_145-25    C    0.45527006    0.51306978    0.21730025    -0.17320000
opls_145-26    C    0.51635986    0.51847995    0.28892031    0.19360000
opls_145-27    C    0.50407979    0.45258006    0.35386016    -0.16630000
opls_145-28    C    0.43247008    0.38069970    0.34482043    -0.13490000
opls_700-29    C    0.92582977    0.99819998    0.25258015    -0.02890000
opls_700-30    C    0.92818995    0.92662021    0.25376035    -0.02920000
opls_700-31    C    0.84800993    0.99559974    0.25208023    0.06110000
opls_700-32    C    0.85294990    0.84907008    0.24618974    0.06040000
opls_700-33    C    0.69981990    0.98863015    0.25535993    0.06910000
opls_145-34    C    0.72249025    0.96040007    0.15801975    -0.12870000
opls_145-35    C    0.79615980    0.96393002    0.15640004    -0.12330000
opls_145-36    C    0.79697025    0.82301013    0.33712987    -0.12610000
opls_145-37    C    0.72459019    0.75195017    0.32588996    -0.13380000
opls_700-38    C    0.70722972    0.70637987    0.22325028    0.05350000
opls_145-39    C    0.76338984    0.73246001    0.13273039    -0.12060000
opls_145-40    C    0.83569987    0.80317006    0.14437041    -0.11400000
opls_145-41    C    0.03574024    0.83308016    0.15848991    -0.12240000
opls_145-42    C    0.03850034    0.76256022    0.16000981    -0.12870000
opls_142-43    C    0.63058016    0.63252008    0.20827015    0.06820000
opls_700-44    C    0.62268011    0.98636972    0.25696037    0.07130000
opls_145-45    C    0.97960961    0.58316972    0.16443030    -0.12760000
opls_145-46    C    0.97886016    0.51085985    0.16656044    -0.17350000
opls_145-47    C    0.47772017    0.98686992    0.26303035    0.18530000
opls_145-48    C    0.49950993    0.95477009    0.35585985    -0.17400000
opls_145-49    C    0.57143984    0.95462989    0.35339964    -0.13090000
opls_142-50    C    0.98934981    0.36318007    0.18968989    0.06870000
opls_700-51    C    0.00218997    0.92901015    0.25422963    -0.02930000
opls_700-52    C    0.07374994    0.00298994    0.25415959    -0.02990000
opls_700-53    C    0.00458971    0.85371984    0.25431981    0.06040000
opls_700-54    C    0.00990972    0.71163974    0.25727994    0.06740000
opls_145-55    C    0.97858011    0.73232991    0.35282968    -0.12110000
opls_145-56    C    0.97603010    0.80283976    0.35118020    -0.11230000
opls_145-57    C    0.17973995    0.97575017    0.33084015    -0.13380000
opls_145-58    C    0.25169974    0.97648979    0.31524015    -0.13490000
opls_700-59    C    0.01143013    0.63635003    0.25851004    0.06910000
opls_145-60    C    0.01103029    0.49093008    0.26273967    0.18540000
opls_145-61    C    0.04298984    0.54438009    0.35611988    -0.17260000
opls_145-62    C    0.04309018    0.61642026    0.35455970    -0.13090000
opls_700-63    C    0.99744977    0.07229977    0.75229036    -0.02930000
opls_700-64    C    0.99482992    0.14713977    0.74023972    0.06050000
opls_700-65    C    0.99170966    0.28932978    0.70934966    0.06110000
opls_145-66    C    0.96240999    0.23083970    0.62200967    -0.12270000
opls_145-67    C    0.96464001    0.16081996    0.63719029    -0.12920000
opls_145-68    C    0.82536004    0.02392012    0.84878040    -0.13100000
opls_145-69    C    0.75191979    0.02053988    0.85066014    -0.12130000
opls_145-70    C    0.60092976    0.01813984    0.66332014    -0.12240000
opls_145-71    C    0.52939990    0.01895015    0.66635031    -0.17330000
opls_700-72    C    0.07137969    0.07469980    0.75360976    -0.02990000
opls_700-73    C    0.14684988    0.15232004    0.75723003    0.06910000
opls_700-74    C    0.15130979    0.00561988    0.74300986    0.06300000
opls_145-75    C    0.02426018    0.20537025    0.82816018    -0.13380000
opls_145-76    C    0.02292018    0.27624010    0.81270027    -0.13460000
opls_700-77    C    0.29597992    0.00745020    0.71180024    0.05780000
opls_145-78    C    0.26716003    0.03723020    0.62468000    -0.12300000
opls_145-79    C    0.19526994    0.03562978    0.64008037    -0.13170000
opls_145-80    C    0.19497018    0.17249991    0.85645958    -0.13650000
opls_145-81    C    0.26648010    0.24421987    0.86235007    -0.11950000
opls_700-82    C    0.29219027    0.29806019    0.76801993    0.06560000
opls_145-83    C    0.24280015    0.27782982    0.66837013    -0.13470000
opls_145-84    C    0.17080027    0.20573025    0.66323959    -0.12900000
opls_700-85    C    0.36984013    0.37440021    0.77432016    0.06650000
opls_142-86    C    0.37167975    0.00893002    0.69139978    0.06840000
opls_145-87    C    0.38230002    0.44210012    0.71123028    -0.13480000
opls_145-88    C    0.45527006    0.51306978    0.71730025    -0.17320000
opls_145-89    C    0.51635986    0.51847995    0.78892031    0.19360000
opls_145-90    C    0.50407979    0.45258006    0.85386016    -0.16630000
opls_145-91    C    0.43247008    0.38069970    0.84480992    -0.13490000
opls_700-92    C    0.92582977    0.99819998    0.75258015    -0.02890000
opls_700-93    C    0.92818995    0.92662021    0.75376035    -0.02920000
opls_700-94    C    0.84800993    0.99559974    0.75208023    0.06110000
opls_700-95    C    0.85294990    0.84907008    0.74618974    0.06040000
opls_700-96    C    0.69981990    0.98863015    0.75535993    0.06910000
opls_145-97    C    0.72249025    0.96040007    0.65801975    -0.12860000
opls_145-98    C    0.79615980    0.96393002    0.65640004    -0.12330000
opls_145-99    C    0.79697025    0.82301013    0.83712987    -0.12610000
opls_145-100    C    0.72459019    0.75195017    0.82588996    -0.13370000
opls_700-101    C    0.70722972    0.70637987    0.72325028    0.05280000
opls_145-102    C    0.76338984    0.73246001    0.63271989    -0.12060000
opls_145-103    C    0.83569987    0.80317006    0.64437041    -0.11400000
opls_145-104    C    0.03574024    0.83308016    0.65848991    -0.12240000
opls_145-105    C    0.03850034    0.76256022    0.66000981    -0.12870000
opls_142-106    C    0.63058016    0.63252008    0.70827015    0.06820000
opls_700-107    C    0.62268011    0.98636972    0.75696037    0.07130000
opls_145-108    C    0.97960961    0.58316972    0.66443030    -0.12760000
opls_145-109    C    0.97886016    0.51085985    0.66656044    -0.17350000
opls_145-110    C    0.47772017    0.98686992    0.76303035    0.18530000
opls_145-111    C    0.49950993    0.95477009    0.85585985    -0.17400000
opls_145-112    C    0.57143984    0.95462989    0.85339964    -0.13090000
opls_142-113    C    0.98934981    0.36318007    0.68968989    0.06870000
opls_700-114    C    0.00218997    0.92901015    0.75422963    -0.02930000
opls_700-115    C    0.07374994    0.00298994    0.75415959    -0.02990000
opls_700-116    C    0.00458971    0.85371984    0.75431981    0.06040000
opls_700-117    C    0.00990972    0.71163974    0.75727994    0.06740000
opls_145-118    C    0.97858011    0.73232991    0.85282968    -0.12110000
opls_145-119    C    0.97603010    0.80283976    0.85118020    -0.11230000
opls_145-120    C    0.17973995    0.97575017    0.83084015    -0.13380000
opls_145-121    C    0.25169974    0.97648979    0.81524015    -0.13490000
opls_700-122    C    0.01143013    0.63635003    0.75851004    0.06910000
opls_145-123    C    0.01103029    0.49093008    0.76273967    0.18540000
opls_145-124    C    0.04298984    0.54438009    0.85611988    -0.17240000
opls_145-125    C    0.04309018    0.61642026    0.85455970    -0.13090000
opls_750-126    N    0.40384992    0.98690022    0.27211035    -0.34820000
opls_750-127    N    0.59087968    0.59083972    0.29843983    -0.36070000
opls_750-128    N    0.01147023    0.41724019    0.27065962    -0.34980000
opls_750-129    N    0.40384992    0.98690022    0.77211035    -0.34810000
opls_750-130    N    0.59087968    0.59083972    0.79843983    -0.36070000
opls_750-131    N    0.01147023    0.41724019    0.77065962    -0.34980000
opls_146-132    H    0.93787029    0.23939011    0.04179989    0.11000000
opls_146-133    H    0.94350993    0.11705977    0.06839027    0.09850000
opls_146-134    H    0.86473009    0.04842005    0.42257000    0.10770000
opls_146-135    H    0.73620025    0.04400019    0.42555989    0.11280000
opls_146-136    H    0.64042035    0.04425029    0.08919960    0.10990000
opls_146-137    H    0.51630030    0.04591011    0.09369014    0.11280000
opls_146-138    H    0.04898003    0.19619013    0.40758987    0.11710000
opls_146-139    H    0.04657025    0.32106010    0.38070006    0.11010000
opls_146-140    H    0.30018985    0.06150973    0.04435028    0.10990000
opls_146-141    H    0.17272001    0.05669006    0.07128999    0.11380000
opls_146-142    H    0.17643004    0.13240988    0.42961004    0.09430000
opls_146-143    H    0.30089977    0.25734995    0.44186030    0.11700000
opls_146-144    H    0.25995979    0.31688975    0.09340034    0.11800000
opls_146-145    H    0.13372022    0.19135026    0.08615980    0.11420000
opls_144-146    H    0.39928024    0.02893999    0.10668984    0.11150000
opls_146-147    H    0.33549997    0.44115971    0.15875957    0.11820000
opls_146-148    H    0.46375022    0.56451006    0.16867044    0.11730000
opls_146-149    H    0.55131019    0.45677002    0.40908000    0.11460000
opls_146-150    H    0.42712988    0.33006973    0.39208969    0.11800000
opls_146-151    H    0.68266980    0.93469002    0.08425029    0.11450000
opls_146-152    H    0.81273002    0.94152002    0.08127966    0.11910000
opls_146-153    H    0.80892970    0.85851991    0.41541001    0.11520000
opls_146-154    H    0.68129029    0.73314022    0.39589032    0.11010000
opls_146-155    H    0.75144976    0.69769995    0.05345042    0.10990000
opls_146-156    H    0.87805995    0.82319013    0.07354007    0.10860000
opls_146-157    H    0.05836971    0.87197969    0.08326971    0.11720000
opls_146-158    H    0.06388983    0.74814993    0.08615980    0.11410000
opls_144-159    H    0.60995997    0.61097979    0.12024024    0.10430000
opls_146-160    H    0.95357008    0.59687010    0.09054965    0.11110000
opls_146-161    H    0.95204977    0.47111972    0.09350015    0.10770000
opls_146-162    H    0.46018996    0.92990006    0.43034023    0.11450000
opls_146-163    H    0.58686015    0.92916995    0.42612023    0.11430000
opls_144-164    H    0.96869035    0.37063026    0.10542997    0.11150000
opls_146-165    H    0.95486014    0.69316009    0.42768040    0.11490000
opls_146-166    H    0.95171976    0.81799976    0.42512038    0.10170000
opls_146-167    H    0.14568001    0.95102985    0.41010961    0.11670000
opls_146-168    H    0.27259993    0.95244016    0.38304996    0.11010000
opls_146-169    H    0.06795009    0.52969000    0.43022028    0.11450000
opls_146-170    H    0.06863977    0.65702000    0.42755958    0.11320000
opls_146-171    H    0.93787029    0.23939011    0.54179989    0.10990000
opls_146-172    H    0.94350993    0.11705977    0.56839027    0.09850000
opls_146-173    H    0.86473009    0.04842005    0.92257000    0.10770000
opls_146-174    H    0.73620025    0.04400019    0.92555989    0.11280000
opls_146-175    H    0.64042035    0.04425029    0.58919960    0.10990000
opls_146-176    H    0.51630030    0.04591011    0.59369014    0.11280000
opls_146-177    H    0.04898003    0.19619013    0.90758987    0.11710000
opls_146-178    H    0.04657025    0.32106010    0.88070006    0.11010000
opls_146-179    H    0.30018985    0.06150973    0.54433977    0.11110000
opls_146-180    H    0.17272001    0.05669006    0.57128999    0.11380000
opls_146-181    H    0.17643004    0.13240988    0.92961004    0.09430000
opls_146-182    H    0.30089977    0.25734995    0.94186030    0.11700000
opls_146-183    H    0.25995979    0.31688975    0.59340034    0.11800000
opls_146-184    H    0.13372022    0.19135026    0.58615980    0.11420000
opls_144-185    H    0.39928024    0.02893999    0.60668984    0.11150000
opls_146-186    H    0.33549997    0.44115971    0.65875957    0.11830000
opls_146-187    H    0.46375022    0.56451006    0.66867044    0.11720000
opls_146-188    H    0.55131019    0.45677002    0.90908000    0.11460000
opls_146-189    H    0.42712988    0.33006973    0.89208969    0.11750000
opls_146-190    H    0.68266980    0.93469002    0.58425029    0.11450000
opls_146-191    H    0.81273002    0.94152002    0.58127966    0.11910000
opls_146-192    H    0.80892970    0.85851991    0.91541001    0.11520000
opls_146-193    H    0.68129029    0.73314022    0.89589032    0.11010000
opls_146-194    H    0.75144976    0.69769995    0.55345042    0.11250000
opls_146-195    H    0.87805995    0.82319013    0.57354007    0.10860000
opls_146-196    H    0.05836971    0.87197969    0.58326971    0.11720000
opls_146-197    H    0.06388983    0.74814993    0.58615980    0.11410000
opls_144-198    H    0.60995997    0.61097979    0.62024024    0.10430000
opls_146-199    H    0.95357008    0.59687010    0.59054965    0.11110000
opls_146-200    H    0.95204977    0.47111972    0.59350015    0.10770000
opls_146-201    H    0.46018996    0.92990006    0.93034023    0.11450000
opls_146-202    H    0.58686015    0.92916995    0.92612023    0.11440000
opls_144-203    H    0.96869035    0.37063026    0.60542034    0.11220000
opls_146-204    H    0.95486014    0.69316009    0.92768040    0.11490000
opls_146-205    H    0.95171976    0.81799976    0.92512038    0.10170000
opls_146-206    H    0.14568001    0.95102985    0.91010961    0.11670000
opls_146-207    H    0.27259993    0.95244016    0.88304996    0.11010000
opls_146-208    H    0.06795009    0.52969000    0.93022028    0.11450000
opls_146-209    H    0.06863977    0.65702000    0.92755958    0.11320000
