#======================================================================
# Crystal Data Generated By AuToFF
#----------------------------------------------------------------------

data_AuToFF_phase_1

_cell_length_a                         29.7800
_cell_length_b                         29.7800
_cell_length_c                         3.5000
_cell_angle_alpha                      90.00
_cell_angle_beta                       90.00
_cell_angle_gamma                      120.00
_symmetry_space_group_name_H-M_alt     'P 1'
_symmetry_space_group_IT_number        1

loop_
_space_group_symop_operation_xyz
   'x, y, z'

loop_
   _atom_site_label
   _atom_site_type_symbol
   _atom_site_fract_x
   _atom_site_fract_y
   _atom_site_fract_z
   _atom_site_charge
opls_238-0    N    0.58120000    0.18729992    0.54690000    -0.24470000
opls_238-1    N    0.81270006    0.39389979    0.54690000    -0.24470000
opls_238-2    N    0.60610009    0.41879990    0.54690000    -0.24470000
opls_238-3    N    0.41880000    0.81270008    0.54690000    -0.24470000
opls_238-4    N    0.18729975    0.60609983    0.54690000    -0.24470000
opls_238-5    N    0.39389991    0.58120010    0.54690000    -0.24470000
opls_142-6    C    0.63079980    0.22489981    0.56440000    0.07410000
opls_916-7    C    0.56079980    0.13609994    0.51090000    0.20030000
opls_145-8    C    0.50830001    0.10560003    0.60440000    -0.16550000
opls_145-9    C    0.48449994    0.05209994    0.58950000    -0.12230000
opls_700-10    C    0.51189978    0.02719982    0.48000000    0.08920000
opls_145-11    C    0.56409993    0.05840000    0.37560000    -0.12210000
opls_145-12    C    0.58839999    0.11200012    0.38880000    -0.16550000
opls_700-13    C    0.64669996    0.27829985    0.58820000    -0.12240000
opls_280-14    C    0.29739987    0.68679974    0.59440000    0.33870000
opls_142-15    C    0.77510013    0.40590006    0.56440000    0.07410000
opls_916-16    C    0.86389994    0.42469981    0.51090000    0.20030000
opls_145-17    C    0.89440004    0.40270001    0.60440000    -0.16550000
opls_145-18    C    0.94790014    0.43240001    0.58950000    -0.12230000
opls_700-19    C    0.97279998    0.48470003    0.48000000    0.08920000
opls_145-20    C    0.94159975    0.50569983    0.37560000    -0.12210000
opls_145-21    C    0.88799986    0.47639999    0.38880000    -0.16550000
opls_700-22    C    0.72169991    0.36839983    0.58820000    -0.12240000
opls_280-23    C    0.31319992    0.61059998    0.59440000    0.33870000
opls_142-24    C    0.59410007    0.36920013    0.56440000    0.07410000
opls_916-25    C    0.57530007    0.43919987    0.51090000    0.20030000
opls_145-26    C    0.59729995    0.49169996    0.60440000    -0.16550000
opls_145-27    C    0.56759992    0.51550005    0.58950000    -0.12230000
opls_700-28    C    0.51530005    0.48809976    0.48000000    0.08920000
opls_145-29    C    0.49429979    0.43589978    0.37560000    -0.12210000
opls_145-30    C    0.52359981    0.41159989    0.38880000    -0.16550000
opls_700-31    C    0.63159993    0.35329993    0.58820000    -0.12240000
opls_280-32    C    0.38940002    0.70259990    0.59440000    0.33870000
opls_142-33    C    0.36920000    0.77509981    0.56440000    0.07410000
opls_916-34    C    0.43920020    0.86390006    0.51090000    0.20030000
opls_145-35    C    0.49169999    0.89439997    0.60440000    -0.16550000
opls_145-36    C    0.51550006    0.94790006    0.58950000    -0.12230000
opls_700-37    C    0.48810003    0.97279979    0.48000000    0.08920000
opls_145-38    C    0.43590007    0.94160000    0.37560000    -0.12210000
opls_145-39    C    0.41160001    0.88799988    0.38880000    -0.16550000
opls_700-40    C    0.35329985    0.72169976    0.58820000    -0.12240000
opls_280-41    C    0.70259994    0.31319988    0.59440000    0.33870000
opls_142-42    C    0.22489987    0.59409994    0.56440000    0.07410000
opls_916-43    C    0.13609987    0.57529980    0.51090000    0.20030000
opls_145-44    C    0.10559996    0.59729999    0.60440000    -0.16550000
opls_145-45    C    0.05209986    0.56759999    0.58950000    -0.12230000
opls_700-46    C    0.02720002    0.51529997    0.48000000    0.08920000
opls_145-47    C    0.05840006    0.49429978    0.37560000    -0.12210000
opls_145-48    C    0.11200014    0.52360001    0.38880000    -0.16550000
opls_700-49    C    0.27829989    0.63159978    0.58820000    -0.12240000
opls_280-50    C    0.68680008    0.38940002    0.59440000    0.33870000
opls_142-51    C    0.40589993    0.63079987    0.56440000    0.07410000
opls_916-52    C    0.42469974    0.56079974    0.51090000    0.20030000
opls_145-53    C    0.40270005    0.50830004    0.60440000    -0.16550000
opls_145-54    C    0.43240008    0.48449995    0.58950000    -0.12230000
opls_700-55    C    0.48469976    0.51189985    0.48000000    0.08920000
opls_145-56    C    0.50570002    0.56409983    0.37560000    -0.12210000
opls_145-57    C    0.47640019    0.58840011    0.38880000    -0.16550000
opls_700-58    C    0.36840007    0.64670007    0.58820000    -0.12220000
opls_280-59    C    0.61059998    0.29740010    0.59440000    0.33870000
opls_281-60    O    0.26650006    0.70469992    0.60210000    -0.49650000
opls_281-61    O    0.29529980    0.56179974    0.60210000    -0.49560000
opls_281-62    O    0.43819995    0.73349996    0.60210000    -0.49650000
opls_281-63    O    0.73349994    0.29530008    0.60210000    -0.49650000
opls_281-64    O    0.70470001    0.43819988    0.60210000    -0.49640000
opls_281-65    O    0.56180005    0.26650004    0.60210000    -0.49650000
opls_910-66    H    0.55630021    0.20310009    0.56950000    0.25140000
opls_144-67    H    0.66149997    0.21499994    0.55560000    0.06600000
opls_146-68    H    0.48680015    0.12440016    0.69980000    0.10500000
opls_146-69    H    0.44400006    0.02900012    0.67730000    0.10370000
opls_146-70    H    0.58580017    0.04030013    0.27260000    0.10370000
opls_146-71    H    0.62860002    0.13499991    0.29760000    0.10670000
opls_910-72    H    0.79689981    0.35319989    0.56950000    0.25140000
opls_144-73    H    0.78500013    0.44649992    0.55560000    0.06600000
opls_146-74    H    0.87559988    0.36239988    0.69980000    0.10500000
opls_146-75    H    0.97100001    0.41500002    0.67730000    0.10370000
opls_146-76    H    0.95969985    0.54549977    0.27260000    0.10370000
opls_146-77    H    0.86500009    0.49359990    0.29760000    0.10670000
opls_910-78    H    0.64679998    0.44370002    0.56950000    0.25140000
opls_144-79    H    0.55349990    0.33850015    0.55560000    0.06600000
opls_146-80    H    0.63759998    0.51319995    0.69980000    0.10500000
opls_146-81    H    0.58499993    0.55599987    0.67730000    0.10370000
opls_146-82    H    0.45449998    0.41420010    0.27260000    0.10370000
opls_146-83    H    0.50640003    0.37139980    0.29760000    0.10670000
opls_910-84    H    0.44369979    0.79689991    0.56950000    0.25140000
opls_144-85    H    0.33850003    0.78500006    0.55560000    0.06600000
opls_146-86    H    0.51319985    0.87559984    0.69980000    0.10500000
opls_146-87    H    0.55599994    0.97099988    0.67730000    0.10370000
opls_146-88    H    0.41419983    0.95969987    0.27260000    0.10370000
opls_146-89    H    0.37139979    0.86499971    0.29760000    0.10670000
opls_910-90    H    0.20309999    0.64679972    0.56950000    0.25140000
opls_144-91    H    0.21499987    0.55350008    0.55560000    0.06600000
opls_146-92    H    0.12439993    0.63759973    0.69980000    0.10500000
opls_146-93    H    0.02899999    0.58499998    0.67730000    0.10370000
opls_146-94    H    0.04029995    0.45449984    0.27260000    0.10370000
opls_146-95    H    0.13499991    0.50640010    0.29760000    0.10670000
opls_910-96    H    0.35320002    0.55629998    0.56950000    0.25140000
opls_144-97    H    0.44650010    0.66149985    0.55560000    0.06600000
opls_146-98    H    0.36240002    0.48680005    0.69980000    0.10500000
opls_146-99    H    0.41500007    0.44400013    0.67730000    0.10370000
opls_146-100    H    0.54550002    0.58579990    0.27260000    0.10370000
opls_146-101    H    0.49359977    0.62859981    0.29760000    0.10670000
