#======================================================================
# Crystal Data Generated By AuToFF
#----------------------------------------------------------------------

data_AuToFF_phase_1

_cell_length_a                         45.3935
_cell_length_b                         45.3935
_cell_length_c                         3.4485
_cell_angle_alpha                      90.00
_cell_angle_beta                       90.00
_cell_angle_gamma                      120.00
_symmetry_space_group_name_H-M_alt     'P 1'
_symmetry_space_group_IT_number        1

loop_
_space_group_symop_operation_xyz
   'x, y, z'

loop_
   _atom_site_label
   _atom_site_type_symbol
   _atom_site_fract_x
   _atom_site_fract_y
   _atom_site_fract_z
   _atom_site_charge
opls_700-0    C    0.09030994    0.57463004    0.50000000    0.02960000
opls_523-1    C    0.06794999    0.58782018    0.50000000    -0.13080000
opls_522-2    C    0.03275000    0.56648009    0.50000000    -0.16260000
opls_521-3    C    0.01898013    0.53111016    0.50000000    0.16280000
opls_521-4    C    0.07502001    0.53876000    0.50000000    0.07390000
opls_521-5    C    0.98181015    0.50646013    0.50000000    0.16990000
opls_521-6    C    0.93817009    0.44811014    0.50000000    0.07010000
opls_700-7    C    0.91204994    0.45646003    0.50000000    0.02960000
opls_523-8    C    0.92257999    0.49153005    0.50000000    -0.12710000
opls_522-9    C    0.95699997    0.51625003    0.50000000    -0.16830000
opls_141-10    C    0.12848007    0.59855001    0.50000000    0.01780000
opls_142-11    C    0.15092001    0.58696014    0.50000000    -0.10130000
opls_700-12    C    0.18918996    0.60589002    0.50000000    0.11680000
opls_141-13    C    0.87505995    0.42850998    0.50000000    0.01770000
opls_142-14    C    0.84913005    0.43540000    0.50000000    -0.10130000
opls_700-15    C    0.81120998    0.41198013    0.50000000    0.11630000
opls_145-16    C    0.20503014    0.58594009    0.50000000    -0.13120000
opls_523-17    C    0.24038004    0.60079004    0.50000000    -0.11680000
opls_700-18    C    0.26124991    0.63625002    0.50000000    -0.00170000
opls_523-19    C    0.24587015    0.65644008    0.50000000    -0.12050000
opls_145-20    C    0.21047002    0.64159013    0.50000000    -0.11950000
opls_145-21    C    0.79100002    0.42754004    0.50000000    -0.13130000
opls_523-22    C    0.75554011    0.40831000    0.50000000    -0.11820000
opls_700-23    C    0.73894009    0.37268009    0.50000000    -0.00180000
opls_523-24    C    0.75870005    0.35684011    0.50000000    -0.11970000
opls_145-25    C    0.79422000    0.37608008    0.50000000    -0.11950000
opls_423-26    C    0.13999015    0.63453019    0.50000000    0.23210000
opls_423-27    C    0.86857004    0.39394998    0.50000000    0.23210000
opls_531-28    C    0.29879000    0.65209000    0.50000000    0.33660000
opls_531-29    C    0.70129999    0.35219012    0.50000000    0.33690000
opls_700-30    C    0.42536992    0.51567998    0.50000000    0.02960000
opls_523-31    C    0.41217992    0.48012995    0.50000000    -0.13080000
opls_522-32    C    0.43352009    0.46627003    0.50000000    -0.16260000
opls_521-33    C    0.46888994    0.48787009    0.50000000    0.16280000
opls_521-34    C    0.46124002    0.53625999    0.50000000    0.07390000
opls_521-35    C    0.49354003    0.47534997    0.50000000    0.16990000
opls_521-36    C    0.55189002    0.49006001    0.50000000    0.07010000
opls_700-37    C    0.54354002    0.45559006    0.50000000    0.02960000
opls_523-38    C    0.50846999    0.43104992    0.50000000    -0.12710000
opls_522-39    C    0.48374995    0.44075003    0.50000000    -0.16830000
opls_141-40    C    0.40145001    0.52993011    0.50000000    0.01780000
opls_142-41    C    0.41303995    0.56395999    0.50000000    -0.10130000
opls_700-42    C    0.39411013    0.58330018    0.50000000    0.11680000
opls_141-43    C    0.57149008    0.44655005    0.50000000    0.01770000
opls_142-44    C    0.56459991    0.41372998    0.50000000    -0.10130000
opls_700-45    C    0.58801998    0.39923006    0.50000000    0.11630000
opls_145-46    C    0.41406001    0.61909009    0.50000000    -0.13120000
opls_523-47    C    0.39920988    0.63958998    0.50000000    -0.11680000
opls_700-48    C    0.36375007    0.62500000    0.50000000    -0.00170000
opls_523-49    C    0.34356016    0.58943013    0.50000000    -0.12050000
opls_145-50    C    0.35841012    0.56888013    0.50000000    -0.11950000
opls_145-51    C    0.57245994    0.36345999    0.50000000    -0.13130000
opls_523-52    C    0.59169008    0.34723005    0.50000000    -0.11820000
opls_700-53    C    0.62732011    0.36626016    0.50000000    -0.00180000
opls_523-54    C    0.64316008    0.40186005    0.50000000    -0.11970000
opls_145-55    C    0.62391997    0.41814010    0.50000000    -0.11950000
opls_423-56    C    0.36547002    0.50546018    0.50000000    0.23210000
opls_423-57    C    0.60605010    0.47462017    0.50000000    0.23210000
opls_531-58    C    0.34790992    0.64670003    0.50000000    0.33660000
opls_531-59    C    0.64781005    0.34911014    0.50000000    0.33690000
opls_700-60    C    0.48431992    0.90968999    0.50000000    0.02960000
opls_523-61    C    0.51987000    0.93205013    0.50000000    -0.13080000
opls_522-62    C    0.53373004    0.96725014    0.50000000    -0.16260000
opls_521-63    C    0.51213006    0.98102001    0.50000000    0.16280000
opls_521-64    C    0.46373996    0.92498001    0.50000000    0.07390000
opls_521-65    C    0.52465004    0.01818990    0.50000000    0.16990000
opls_521-66    C    0.50994002    0.06183010    0.50000000    0.07010000
opls_700-67    C    0.54441004    0.08794991    0.50000000    0.02960000
opls_523-68    C    0.56895003    0.07742003    0.50000000    -0.12710000
opls_522-69    C    0.55924987    0.04299993    0.50000000    -0.16830000
opls_141-70    C    0.47007005    0.87152014    0.50000000    0.01780000
opls_142-71    C    0.43604017    0.84908013    0.50000000    -0.10130000
opls_700-72    C    0.41670004    0.81081005    0.50000000    0.11680000
opls_141-73    C    0.55344997    0.12493997    0.50000000    0.01770000
opls_142-74    C    0.58627004    0.15087002    0.50000000    -0.10130000
opls_700-75    C    0.60076995    0.18879007    0.50000000    0.11630000
opls_145-76    C    0.38090998    0.79497008    0.50000000    -0.13120000
opls_523-77    C    0.36041008    0.75961998    0.50000000    -0.11820000
opls_700-78    C    0.37500002    0.73874998    0.50000000    -0.00170000
opls_523-79    C    0.41057004    0.75413005    0.50000000    -0.12050000
opls_145-80    C    0.43111998    0.78952999    0.50000000    -0.11950000
opls_145-81    C    0.63654003    0.20899997    0.50000000    -0.13130000
opls_523-82    C    0.65277003    0.24445995    0.50000000    -0.11820000
opls_700-83    C    0.63373993    0.26106000    0.50000000    -0.00180000
opls_523-84    C    0.59814000    0.24130009    0.50000000    -0.11970000
opls_145-85    C    0.58185994    0.20578008    0.50000000    -0.11940000
opls_423-86    C    0.49454008    0.86001014    0.50000000    0.23220000
opls_423-87    C    0.52537999    0.13143011    0.50000000    0.23210000
opls_531-88    C    0.35330008    0.70120996    0.50000000    0.33660000
opls_531-89    C    0.65089008    0.29869999    0.50000000    0.33690000
opls_520-90    N    0.04063995    0.51862005    0.50000000    -0.29820000
opls_520-91    N    0.97144014    0.47273015    0.50000000    -0.29820000
opls_520-92    N    0.31887003    0.68648008    0.50000000    -0.48040000
opls_520-93    N    0.68232001    0.36769992    0.50000000    -0.44820000
opls_753-94    N    0.14842998    0.66318994    0.50000000    -0.29620000
opls_753-95    N    0.86419015    0.36652013    0.50000000    -0.29640000
opls_520-96    N    0.48138012    0.52202004    0.50000000    -0.29760000
opls_520-97    N    0.52726993    0.49871006    0.50000000    -0.29820000
opls_520-98    N    0.31352001    0.63239012    0.50000000    -0.48030000
opls_520-99    N    0.63230008    0.31462009    0.50000000    -0.44820000
opls_753-100    N    0.33680997    0.48524010    0.50000000    -0.29630000
opls_753-101    N    0.63348002    0.49767017    0.50000000    -0.29640000
opls_520-102    N    0.47798006    0.95936016    0.50000000    -0.29760000
opls_520-103    N    0.50129005    0.02856004    0.50000000    -0.29820000
opls_520-104    N    0.36761009    0.68113005    0.50000000    -0.48040000
opls_520-105    N    0.68537991    0.31767998    0.50000000    -0.44810000
opls_753-106    N    0.51476018    0.85157021    0.50000000    -0.29640000
opls_753-107    N    0.50232995    0.13580995    0.50000000    -0.29640000
opls_526-108    H    0.07735010    0.61490001    0.50000000    0.12090000
opls_525-109    H    0.01706008    0.57812007    0.50000000    0.11380000
opls_524-110    H    0.08946006    0.52587994    0.50000000    0.10120000
opls_524-111    H    0.93251001    0.42199007    0.50000000    0.12090000
opls_526-112    H    0.90504001    0.50094017    0.50000000    0.11670000
opls_525-113    H    0.96349988    0.54257996    0.50000000    0.11130000
opls_144-114    H    0.14069008    0.55993017    0.50000000    0.10690000
opls_144-115    H    0.85570004    0.46162996    0.50000000    0.10690000
opls_526-116    H    0.25128995    0.58434007    0.50000000    0.11600000
opls_526-117    H    0.26120991    0.68392004    0.50000000    0.11560000
opls_526-118    H    0.74118007    0.42148005    0.50000000    0.11770000
opls_526-119    H    0.74673004    0.32937007    0.50000000    0.11600000
opls_146-120    H    0.18995007    0.55843011    0.50000000    0.11280000
opls_146-121    H    0.20108000    0.65898002    0.50000000    0.24590000
opls_146-122    H    0.80269014    0.45500016    0.50000000    0.11470000
opls_146-123    H    0.80709999    0.36181011    0.50000000    0.10970000
opls_526-124    H    0.38509993    0.46245007    0.50000000    0.12090000
opls_525-125    H    0.42188011    0.43894015    0.50000000    0.11380000
opls_524-126    H    0.47411994    0.56357995    0.50000000    0.10120000
opls_524-127    H    0.57800994    0.51051996    0.50000000    0.12090000
opls_526-128    H    0.49905996    0.40410008    0.50000000    0.11670000
opls_525-129    H    0.45742011    0.42092017    0.50000000    0.11130000
opls_144-130    H    0.44006993    0.58075998    0.50000000    0.10690000
opls_144-131    H    0.53837001    0.39407004    0.50000000    0.10690000
opls_526-132    H    0.41565996    0.66695013    0.50000000    0.11600000
opls_526-133    H    0.31608001    0.57729004    0.50000000    0.11560000
opls_526-134    H    0.57852006    0.31969998    0.50000000    0.11770000
opls_526-135    H    0.67063002    0.41735993    0.50000000    0.11600000
opls_146-136    H    0.44157016    0.63152016    0.50000000    0.11290000
opls_146-137    H    0.34101991    0.54209995    0.50000000    0.24590000
opls_146-138    H    0.54499988    0.34768996    0.50000000    0.11470000
opls_146-139    H    0.63819002    0.44529013    0.50000000    0.10970000
opls_526-140    H    0.53755010    0.92265018    0.50000000    0.12090000
opls_525-141    H    0.56105994    0.98294003    0.50000000    0.11380000
opls_524-142    H    0.43642000    0.91054011    0.50000000    0.10120000
opls_524-143    H    0.48948005    0.06748996    0.50000000    0.12090000
opls_526-144    H    0.59589993    0.09496000    0.50000000    0.11670000
opls_525-145    H    0.57908014    0.03650013    0.50000000    0.11130000
opls_144-146    H    0.41924012    0.85931010    0.50000000    0.10690000
opls_144-147    H    0.60592995    0.14430000    0.50000000    0.10690000
opls_526-148    H    0.33305000    0.74871006    0.50000000    0.11600000
opls_526-149    H    0.42270999    0.73879017    0.50000000    0.11560000
opls_526-150    H    0.68030009    0.25881997    0.50000000    0.11770000
opls_526-151    H    0.58263993    0.25327000    0.50000000    0.11600000
opls_146-152    H    0.36847989    0.81004998    0.50000000    0.11280000
opls_146-153    H    0.45790010    0.79892002    0.50000000    0.24590000
opls_146-154    H    0.65231010    0.19731013    0.50000000    0.11470000
opls_146-155    H    0.55471011    0.19290002    0.50000000    0.10970000
