#======================================================================
# Crystal Data Generated By AuToFF
#----------------------------------------------------------------------

data_AuToFF_phase_1

_cell_length_a                         25.4443
_cell_length_b                         20.0445
_cell_length_c                         5.4569
_cell_angle_alpha                      90.00
_cell_angle_beta                       90.00
_cell_angle_gamma                      90.00
_symmetry_space_group_name_H-M_alt     'P 1'
_symmetry_space_group_IT_number        1

loop_
_space_group_symop_operation_xyz
   'x, y, z'

loop_
   _atom_site_label
   _atom_site_type_symbol
   _atom_site_fract_x
   _atom_site_fract_y
   _atom_site_fract_z
   _atom_site_charge
opls_507-0    C    0.61715001    0.94379007    0.49748942    0.19040000
opls_700-1    C    0.59829982    0.87458006    0.49682054    -0.13500000
opls_543-2    C    0.54420008    0.84988002    0.49798970    0.18050000
opls_145-3    C    0.64668000    0.77899025    0.30067071    -0.13150000
opls_145-4    C    0.68921016    0.73465988    0.29516026    -0.16930000
opls_145-5    C    0.72621019    0.73389009    0.48540930    0.18550000
opls_145-6    C    0.71868002    0.77698022    0.68704942    -0.17020000
opls_145-7    C    0.67560004    0.81989024    0.69503015    -0.12020000
opls_700-8    C    0.64010997    0.82275986    0.49914970    0.06150000
opls_142-9    C    0.80736982    0.68227993    0.62797926    0.06940000
opls_716-10    C    0.66927996    0.96520991    0.49621030    -0.17720000
opls_716-11    C    0.52752011    0.78365986    0.50000000    -0.16910000
opls_145-12    C    0.86275983    0.60337998    0.37329070    -0.12910000
opls_145-13    C    0.90981006    0.56771982    0.34136048    -0.13150000
opls_700-14    C    0.95044981    0.57319015    0.51516979    0.06160000
opls_145-15    C    0.94402008    0.61649979    0.71337023    -0.09280000
opls_145-16    C    0.89727994    0.65106987    0.74777071    -0.11330000
opls_700-17    C    0.85604006    0.64459977    0.57986036    0.05570000
opls_507-18    C    0.38284999    0.05620993    0.49748942    0.19040000
opls_700-19    C    0.40170018    0.12541994    0.49682054    -0.13500000
opls_543-20    C    0.45579992    0.15011998    0.49798970    0.18050000
opls_145-21    C    0.35332000    0.22100975    0.30067071    -0.13150000
opls_145-22    C    0.31078984    0.26534012    0.29516026    -0.16930000
opls_145-23    C    0.27378981    0.26610991    0.48540930    0.18550000
opls_145-24    C    0.28131998    0.22301978    0.68704942    -0.17020000
opls_145-25    C    0.32439996    0.18010976    0.69503015    -0.12020000
opls_700-26    C    0.35989003    0.17724014    0.49914970    0.06150000
opls_142-27    C    0.19263018    0.31772007    0.62797926    0.06940000
opls_716-28    C    0.33072004    0.03479009    0.49621030    -0.17720000
opls_716-29    C    0.47247989    0.21634014    0.50000000    -0.16910000
opls_145-30    C    0.13724017    0.39662002    0.37329070    -0.12910000
opls_145-31    C    0.09018994    0.43228018    0.34136048    -0.13150000
opls_700-32    C    0.04955019    0.42680985    0.51516979    0.06160000
opls_145-33    C    0.05597992    0.38350021    0.71337023    -0.09280000
opls_145-34    C    0.10272006    0.34893013    0.74777071    -0.11330000
opls_700-35    C    0.14395994    0.35540023    0.57986036    0.05570000
opls_507-36    C    0.38284999    0.94379007    0.50251058    0.19040000
opls_700-37    C    0.40170018    0.87458006    0.50317946    -0.13500000
opls_543-38    C    0.45579992    0.84988002    0.50201030    0.18050000
opls_145-39    C    0.35332000    0.77899025    0.69932929    -0.13150000
opls_145-40    C    0.31078984    0.73465988    0.70483974    -0.16930000
opls_145-41    C    0.27378981    0.73389009    0.51459070    0.18550000
opls_145-42    C    0.28131998    0.77698022    0.31295058    -0.17020000
opls_145-43    C    0.32439996    0.81989024    0.30496985    -0.12020000
opls_700-44    C    0.35989003    0.82275986    0.50085030    0.06150000
opls_142-45    C    0.19263018    0.68227993    0.37202074    0.06940000
opls_716-46    C    0.33072004    0.96520991    0.50378970    -0.17720000
opls_716-47    C    0.47247989    0.78365986    0.50000000    -0.16910000
opls_145-48    C    0.13724017    0.60337998    0.62670930    -0.12910000
opls_145-49    C    0.09018994    0.56771982    0.65863952    -0.13150000
opls_700-50    C    0.04955019    0.57319015    0.48483021    0.06160000
opls_145-51    C    0.05597992    0.61649979    0.28662977    -0.09280000
opls_145-52    C    0.10272006    0.65106987    0.25222929    -0.11330000
opls_700-53    C    0.14395994    0.64459977    0.42013964    0.05570000
opls_507-54    C    0.61715001    0.05620993    0.50251058    0.19040000
opls_700-55    C    0.59829982    0.12541994    0.50317946    -0.13500000
opls_543-56    C    0.54420008    0.15011998    0.50201030    0.18050000
opls_145-57    C    0.64668000    0.22100975    0.69932929    -0.13150000
opls_145-58    C    0.68921016    0.26534012    0.70483974    -0.16930000
opls_145-59    C    0.72621019    0.26610991    0.51459070    0.18550000
opls_145-60    C    0.71868002    0.22301978    0.31295058    -0.17020000
opls_145-61    C    0.67560004    0.18010976    0.30496985    -0.12020000
opls_700-62    C    0.64010997    0.17724014    0.50085030    0.06150000
opls_142-63    C    0.80736982    0.31772007    0.37202074    0.06940000
opls_716-64    C    0.66927996    0.03479009    0.50378970    -0.17720000
opls_716-65    C    0.52752011    0.21634014    0.50000000    -0.16910000
opls_145-66    C    0.86275983    0.39662002    0.62670930    -0.12910000
opls_145-67    C    0.90981006    0.43228018    0.65863952    -0.13150000
opls_700-68    C    0.95044981    0.42680985    0.48483021    0.06160000
opls_145-69    C    0.94402008    0.38350021    0.28662977    -0.09280000
opls_145-70    C    0.89727994    0.34893013    0.25222929    -0.11330000
opls_700-71    C    0.85604006    0.35540023    0.42013964    0.05570000
opls_141-72    C    0.00000000    0.53395994    0.50000000    -0.02760000
opls_141-73    C    0.00000000    0.46604006    0.50000000    -0.02760000
opls_146-74    H    0.61947980    0.78015017    0.14808957    0.11640000
opls_146-75    H    0.69414997    0.70194018    0.13898917    0.11490000
opls_146-76    H    0.74625004    0.77999002    0.83666917    0.10360000
opls_146-77    H    0.67125997    0.85341016    0.84946948    0.11400000
opls_144-78    H    0.80317006    0.70377011    0.80831058    0.11490000
opls_146-79    H    0.83166014    0.59812018    0.23922923    0.11490000
opls_146-80    H    0.91435017    0.53556986    0.18354011    0.11620000
opls_146-81    H    0.97510012    0.62270997    0.84412029    0.10630000
opls_547-82    H    0.55199003    0.73955000    0.50166028    0.11740000
opls_547-83    H    0.29576998    0.06539999    0.49026004    0.11990000
opls_146-84    H    0.89345983    0.68328020    0.90628012    0.11340000
opls_146-85    H    0.38052020    0.21984983    0.14808957    0.11640000
opls_146-86    H    0.30585003    0.29805982    0.13898917    0.11490000
opls_146-87    H    0.25374996    0.22000998    0.83666917    0.10360000
opls_146-88    H    0.32874003    0.14658984    0.84946948    0.11400000
opls_144-89    H    0.19682994    0.29622989    0.80831058    0.11490000
opls_146-90    H    0.16833986    0.40187982    0.23922923    0.11490000
opls_146-91    H    0.08564983    0.46443014    0.18354011    0.11620000
opls_146-92    H    0.02489988    0.37729003    0.84412029    0.10630000
opls_547-93    H    0.44800997    0.26045000    0.50166028    0.11740000
opls_547-94    H    0.70423002    0.93460001    0.49026004    0.11990000
opls_146-95    H    0.10654017    0.31671980    0.90628012    0.11340000
opls_146-96    H    0.38052020    0.78015017    0.85191043    0.11640000
opls_146-97    H    0.30585003    0.70194018    0.86101083    0.11490000
opls_146-98    H    0.25374996    0.77999002    0.16333083    0.10360000
opls_146-99    H    0.32874003    0.85341016    0.15053052    0.11400000
opls_144-100    H    0.19682994    0.70377011    0.19168942    0.11490000
opls_146-101    H    0.16833986    0.59812018    0.76077077    0.11490000
opls_146-102    H    0.08564983    0.53556986    0.81645989    0.11620000
opls_146-103    H    0.02489988    0.62270997    0.15587971    0.10630000
opls_547-104    H    0.44800997    0.73955000    0.49833972    0.11740000
opls_547-105    H    0.70423002    0.06539999    0.50973996    0.11990000
opls_146-106    H    0.10654017    0.68328020    0.09371988    0.11340000
opls_146-107    H    0.61947980    0.21984983    0.85191043    0.11640000
opls_146-108    H    0.69414997    0.29805982    0.86101083    0.11490000
opls_146-109    H    0.74625004    0.22000998    0.16333083    0.10360000
opls_146-110    H    0.67125997    0.14658984    0.15053052    0.11400000
opls_144-111    H    0.80317006    0.29622989    0.19168942    0.11490000
opls_146-112    H    0.83166014    0.40187982    0.76077077    0.11490000
opls_146-113    H    0.91435017    0.46443014    0.81645989    0.11620000
opls_146-114    H    0.97510012    0.37729003    0.15587971    0.10630000
opls_547-115    H    0.55199003    0.26045000    0.49833972    0.11740000
opls_547-116    H    0.29576998    0.93460001    0.50973996    0.11990000
opls_146-117    H    0.89345983    0.31671980    0.09371988    0.11340000
opls_545-118    H    0.50000000    0.93441992    0.50000000    0.29230000
opls_545-119    H    0.50000000    0.06558008    0.50000000    0.29230000
opls_750-120    N    0.77218002    0.69236998    0.45926992    -0.33580000
opls_750-121    N    0.22781998    0.30763002    0.45926992    -0.33580000
opls_750-122    N    0.22781998    0.69236998    0.54073008    -0.33580000
opls_750-123    N    0.77218002    0.30763002    0.54073008    -0.33580000
opls_542-124    N    0.50000000    0.11344010    0.50000000    -0.28790000
opls_542-125    N    0.50000000    0.88655990    0.50000000    -0.28790000
opls_542-126    N    0.41188007    0.00000000    0.50000000    -0.33980000
opls_542-127    N    0.58811993    0.00000000    0.50000000    -0.33980000
