#======================================================================
# Crystal Data Generated By AuToFF
#----------------------------------------------------------------------

data_AuToFF_phase_1

_cell_length_a                         28.8706
_cell_length_b                         28.8630
_cell_length_c                         6.5003
_cell_angle_alpha                      90.21
_cell_angle_beta                       90.40
_cell_angle_gamma                      119.93
_symmetry_space_group_name_H-M_alt     'P 1'
_symmetry_space_group_IT_number        1

loop_
_space_group_symop_operation_xyz
   'x, y, z'

loop_
   _atom_site_label
   _atom_site_type_symbol
   _atom_site_fract_x
   _atom_site_fract_y
   _atom_site_fract_z
   _atom_site_charge
opls_142-0    C    0.31634007    0.60756006    0.74599072    -0.23410000
opls_700-1    C    0.34631997    0.66277014    0.23879986    0.10100000
opls_145-2    C    0.37626000    0.71864008    0.23563059    -0.16420000
opls_142-3    C    0.35062018    0.66087013    0.73721061    -0.12420000
opls_507-4    C    0.50652992    0.97913003    0.22593047    0.12820000
opls_142-5    C    0.28843005    0.63691022    0.23941987    -0.12230000
opls_142-6    C    0.44547999    0.83819014    0.22923051    -0.23160000
opls_145-7    C    0.63425012    0.58008007    0.24767997    -0.24650000
opls_507-8    C    0.65153009    0.61022028    0.74899076    0.12940000
opls_572-9    C    0.25941000    0.58313003    0.74635072    0.45610000
opls_507-10    C    0.62371006    0.52734996    0.24481071    0.12940000
opls_572-11    C    0.47779010    0.89511022    0.22787973    0.45200000
opls_575-12    C    0.63254983    0.50781999    0.74359069    0.20600000
opls_145-13    C    0.69666002    0.60431005    0.74893076    -0.23020000
opls_572-14    C    0.62803990    0.45553007    0.23979987    0.45280000
opls_507-15    C    0.68586992    0.55147013    0.74611995    0.12970000
opls_142-16    C    0.25453994    0.58352018    0.24801074    -0.23770000
opls_142-17    C    0.64295993    0.41507005    0.23679984    -0.25490000
opls_572-18    C    0.68992016    0.47963022    0.74147066    0.45410000
opls_142-19    C    0.69493012    0.42780992    0.23705061    -0.12420000
opls_142-20    C    0.70504991    0.43926992    0.73911064    -0.26130000
opls_145-21    C    0.51222995    0.03009986    0.22449969    -0.23260000
opls_145-22    C    0.68135006    0.33478986    0.23237978    -0.16390000
opls_700-23    C    0.71503003    0.39068010    0.23571059    0.10130000
opls_507-24    C    0.56496993    0.07214999    0.22625971    0.12940000
opls_142-25    C    0.75700985    0.45211992    0.74019988    -0.12430000
opls_142-26    C    0.66468004    0.24279001    0.23011052    -0.12430000
opls_145-27    C    0.57559981    0.05551008    0.72746126    -0.24250000
opls_700-28    C    0.70200991    0.29991988    0.23281979    0.10010000
opls_145-29    C    0.37377019    0.63388003    0.24101989    -0.16780000
opls_572-30    C    0.63662996    0.14812007    0.22863974    0.45440000
opls_145-31    C    0.74362003    0.35912011    0.73621060    -0.16340000
opls_145-32    C    0.77044993    0.41127988    0.23877986    -0.16420000
opls_700-33    C    0.77721001    0.41511001    0.73903063    0.10130000
opls_142-34    C    0.67715008    0.20342009    0.23041053    -0.23510000
opls_575-35    C    0.60883997    0.06263021    0.22889051    0.15550000
opls_507-36    C    0.62855991    0.09736009    0.72893051    0.12340000
opls_142-37    C    0.72799991    0.26758017    0.73345057    -0.12300000
opls_145-38    C    0.75791010    0.32209016    0.23651060    -0.16250000
opls_145-39    C    0.60473016    0.01263005    0.23021976    -0.29860000
opls_700-40    C    0.76474998    0.32478008    0.73619983    0.10150000
opls_700-41    C    0.79263003    0.37751022    0.23907987    0.10130000
opls_572-42    C    0.70061018    0.17314027    0.73112131    0.45150000
opls_700-43    C    0.43260996    0.74599019    0.23565059    0.10130000
opls_145-44    C    0.83265003    0.43605013    0.74141066    -0.16350000
opls_142-45    C    0.74103010    0.22851005    0.73317056    -0.26400000
opls_575-46    C    0.67216993    0.08753002    0.73116131    0.19670000
opls_145-47    C    0.82072000    0.34715028    0.73915064    -0.16430000
opls_145-48    C    0.66761980    0.03723998    0.73209978    -0.29950000
opls_142-49    C    0.84978995    0.39754011    0.24243991    -0.12430000
opls_700-50    C    0.40862002    0.68702029    0.73845063    0.10030000
opls_700-51    C    0.85515006    0.40257005    0.74139989    0.09850000
opls_142-52    C    0.46469019    0.80393020    0.23283056    -0.12300000
opls_142-53    C    0.88909017    0.44935003    0.23807985    -0.26650000
opls_575-54    C    0.55173998    0.97186015    0.22887974    0.17850000
opls_145-55    C    0.43815015    0.74297021    0.73603983    -0.16350000
opls_142-56    C    0.91224992    0.42290010    0.74415993    -0.12470000
opls_507-57    C    0.56953005    0.00445993    0.72872128    0.12870000
opls_572-58    C    0.94444009    0.46422011    0.24157067    0.45300000
opls_142-59    C    0.95101017    0.47493006    0.74005988    -0.23510000
opls_572-60    C    0.00635021    0.48995026    0.74383069    0.44910000
opls_142-61    C    0.50749993    0.86326005    0.73215055    -0.23160000
opls_572-62    C    0.19765991    0.55880003    0.24843075    0.45590000
opls_572-63    C    0.54013013    0.92016031    0.73050130    0.45450000
opls_507-64    C    0.17523995    0.52809031    0.75375082    0.12440000
opls_700-65    C    0.42965014    0.65979010    0.24103989    0.10130000
opls_145-66    C    0.45865025    0.71613017    0.23861063    -0.16010000
opls_145-67    C    0.43654029    0.65856029    0.74213990    -0.16430000
opls_575-68    C    0.18258980    0.58049992    0.73929987    0.20600000
opls_700-69    C    0.49445985    0.77078000    0.73845063    0.10710000
opls_145-70    C    0.12426986    0.48318995    0.76128014    -0.25170000
opls_142-71    C    0.52646028    0.82879030    0.73615983    -0.11840000
opls_575-72    C    0.61450018    0.99678022    0.73090130    0.17320000
opls_142-73    C    0.45527012    0.62745002    0.24317992    -0.12230000
opls_507-74    C    0.11368010    0.50361003    0.25398005    0.12970000
opls_700-75    C    0.49250019    0.68481023    0.74423993    0.10050000
opls_145-76    C    0.52086987    0.74110001    0.74277991    -0.16390000
opls_145-77    C    0.14189024    0.59280029    0.73015052    -0.30090000
opls_575-78    C    0.12080986    0.55587989    0.23905063    0.17880000
opls_507-79    C    0.08224985    0.49401000    0.75274003    0.12910000
opls_145-80    C    0.06287998    0.45838985    0.26002012    -0.23420000
opls_575-81    C    0.09176010    0.54717026    0.73765062    0.19690000
opls_142-82    C    0.50864990    0.64656001    0.24617072    -0.23760000
opls_142-83    C    0.51872997    0.65291002    0.74661073    -0.11970000
opls_145-84    C    0.07982002    0.56777988    0.22981052    -0.30070000
opls_507-85    C    0.02060990    0.46872996    0.25064001    0.12870000
opls_572-86    C    0.53340009    0.61433992    0.24721073    0.45590000
opls_575-87    C    0.02991002    0.52189011    0.23699984    0.16770000
opls_142-88    C    0.57215006    0.67202022    0.74895076    -0.23160000
opls_575-89    C    0.53649989    0.54045008    0.24507994    0.17200000
opls_572-90    C    0.59660017    0.63950023    0.74921999    0.45610000
opls_145-91    C    0.52445012    0.48747021    0.24245068    -0.30300000
opls_507-92    C    0.58889010    0.58566012    0.24757074    0.11510000
opls_575-93    C    0.59898010    0.56512993    0.74657073    0.17320000
opls_575-94    C    0.57046987    0.48350996    0.24229991    0.17850000
opls_145-95    C    0.58669993    0.51212997    0.74389069    -0.30120000
opls_144-96    H    0.40274015    0.82421000    0.22761049    0.11090000
opls_144-97    H    0.33389996    0.68746023    0.72956129    0.11360000
opls_146-98    H    0.35493986    0.74097987    0.23333979    0.11280000
opls_144-99    H    0.26868000    0.55493008    0.25573084    0.11140000
opls_144-100    H    0.33043991    0.57891010    0.75507083    0.11090000
opls_146-101    H    0.67460024    0.61422020    0.24937076    0.11570000
opls_146-102    H    0.41658020    0.76502017    0.73245055    0.11090000
opls_146-103    H    0.73715013    0.63828000    0.75068001    0.11440000
opls_144-104    H    0.61020021    0.37380007    0.23473981    0.11090000
opls_146-105    H    0.47813010    0.03647021    0.22229966    0.11450000
opls_144-106    H    0.46481994    0.84945996    0.73041053    0.11130000
opls_144-107    H    0.67251985    0.39793011    0.73673984    0.11160000
opls_146-108    H    0.63801994    0.31755996    0.22989052    0.11220000
opls_144-109    H    0.72496013    0.47033001    0.23927987    0.11130000
opls_144-110    H    0.62220012    0.23053992    0.22799973    0.11430000
opls_146-111    H    0.54180002    0.06232008    0.72595047    0.11580000
opls_146-112    H    0.70031979    0.34171992    0.73429058    0.11140000
opls_146-113    H    0.35145018    0.59028005    0.24269068    0.11100000
opls_144-114    H    0.78696008    0.49469023    0.74273068    0.10850000
opls_144-115    H    0.68542007    0.25484998    0.73155054    0.04880000
opls_146-116    H    0.79650025    0.45458016    0.24185067    0.11100000
opls_144-117    H    0.27153021    0.66336013    0.23295979    0.11360000
opls_144-118    H    0.71838000    0.21181990    0.23237978    0.11060000
opls_146-119    H    0.85855989    0.47940015    0.74399993    0.11160000
opls_146-120    H    0.77509023    0.29594020    0.23723061    0.11090000
opls_146-121    H    0.63879010    0.00624011    0.23241978    0.11650000
opls_144-122    H    0.88051022    0.48206020    0.23027976    0.11090000
opls_144-123    H    0.78238000    0.23716999    0.73507982    0.11100000
opls_146-124    H    0.83824007    0.32126015    0.73947987    0.11220000
opls_144-125    H    0.86213998    0.36739007    0.24831075    0.13390000
opls_146-126    H    0.70146999    0.03047004    0.73401980    0.11450000
opls_144-127    H    0.94223993    0.50749992    0.73263979    0.11020000
opls_144-128    H    0.92516990    0.39319994    0.74971077    0.10660000
opls_146-129    H    0.11783001    0.44282010    0.77296028    0.11540000
opls_144-130    H    0.50798012    0.82056997    0.23417981    0.11140000
opls_146-131    H    0.41457005    0.61494996    0.74307991    0.11100000
opls_144-132    H    0.42852009    0.58414000    0.24209990    0.13390000
opls_146-133    H    0.50219997    0.73740005    0.23833986    0.11160000
opls_146-134    H    0.05671995    0.41810998    0.27152950    0.11500000
opls_144-135    H    0.56978001    0.84537994    0.73799985    0.11570000
opls_146-136    H    0.14848008    0.63322998    0.71822115    0.11500000
opls_144-137    H    0.49213983    0.60959006    0.74573995    0.09820000
opls_146-138    H    0.56450026    0.76270028    0.74407993    0.11210000
opls_144-139    H    0.53723012    0.68930000    0.24765997    0.11140000
opls_146-140    H    0.08592010    0.60803994    0.21839038    0.11530000
opls_144-141    H    0.60095023    0.71472030    0.75010000    0.11060000
opls_146-142    H    0.48404999    0.45332988    0.24029065    0.11460000
opls_146-143    H    0.54624001    0.47818007    0.74197990    0.11580000
opls_573-144    N    0.46075996    0.92946018    0.22523970    -0.35370000
opls_573-145    N    0.65858000    0.50752004    0.24317069    -0.35640000
opls_573-146    N    0.22502023    0.53190023    0.75745086    -0.36400000
opls_573-147    N    0.72056995    0.53154019    0.74481994    -0.34390000
opls_573-148    N    0.58470989    0.12674996    0.22615971    -0.34460000
opls_573-149    N    0.52348016    0.95483022    0.72848127    -0.36390000
opls_573-150    N    0.64864000    0.15202021    0.72891051    -0.35370000
opls_573-151    N    0.96600003    0.43383995    0.25256003    -0.35350000
opls_573-152    N    0.02769997    0.45939997    0.75621085    -0.34390000
opls_573-153    N    0.16345005    0.50760005    0.25964012    -0.35220000
opls_573-154    N    0.58476023    0.63147022    0.24893076    -0.36740000
opls_573-155    N    0.64786020    0.65620019    0.75067078    -0.35220000
opls_180-156    O    0.57311993    0.43744010    0.23911987    -0.15280000
opls_180-157    O    0.63506016    0.46163027    0.74045065    -0.15280000
opls_180-158    O    0.65486016    0.11133015    0.23031976    -0.15630000
opls_180-159    O    0.71838988    0.13603018    0.73245978    -0.15280000
opls_180-160    O    0.98109016    0.51912001    0.23179055    -0.17860000
opls_180-161    O    0.23656015    0.61585009    0.73513982    -0.15290000
opls_180-162    O    0.04319996    0.54474001    0.73207978    -0.15190000
opls_180-163    O    0.53340020    0.91796002    0.23019976    -0.15180000
opls_180-164    O    0.17461998    0.59137004    0.23529059    -0.15190000
opls_180-165    O    0.59577023    0.94278019    0.73187055    -0.15870000
opls_180-166    O    0.50086999    0.55873022    0.24513994    -0.16020000
opls_180-167    O    0.56367021    0.58386017    0.74677996    -0.15870000
