#======================================================================
# Crystal Data Generated By AuToFF
#----------------------------------------------------------------------

data_AuToFF_phase_1

_cell_length_a                         34.1367
_cell_length_b                         19.9816
_cell_length_c                         10.2647
_cell_angle_alpha                      90.00
_cell_angle_beta                       90.00
_cell_angle_gamma                      90.00
_symmetry_space_group_name_H-M_alt     'P 1'
_symmetry_space_group_IT_number        1

loop_
_space_group_symop_operation_xyz
   'x, y, z'

loop_
   _atom_site_label
   _atom_site_type_symbol
   _atom_site_fract_x
   _atom_site_fract_y
   _atom_site_fract_z
   _atom_site_charge
opls_142-0    C    0.69778010    0.83459983    0.13542042    0.06900000
opls_145-1    C    0.63950997    0.78956990    0.24216002    0.19050000
opls_145-2    C    0.62913990    0.75677023    0.36043041    -0.18110000
opls_145-3    C    0.59993995    0.70751992    0.36509007    -0.13200000
opls_700-4    C    0.58033993    0.69106978    0.25131957    0.09360000
opls_145-5    C    0.58827010    0.72890009    0.13599034    -0.13310000
opls_145-6    C    0.61770001    0.77729011    0.13123033    -0.16330000
opls_700-7    C    0.38583987    0.63814009    0.12513956    0.06800000
opls_145-8    C    0.38046003    0.69257016    0.03713016    -0.11510000
opls_145-9    C    0.34607007    0.73117018    0.04321023    -0.13950000
opls_145-10    C    0.31650013    0.71557983    0.13763968    0.19580000
opls_145-11    C    0.32174991    0.66106018    0.22348047    -0.19980000
opls_145-12    C    0.35589996    0.62292009    0.21790992    -0.09550000
opls_142-13    C    0.27025987    0.80708001    0.08865042    0.08460000
opls_145-14    C    0.77652995    0.95331005    0.24092959    -0.12380000
opls_145-15    C    0.73970009    0.92385995    0.22814013    -0.13000000
opls_700-16    C    0.73444006    0.87344006    0.13785011    0.05530000
opls_145-17    C    0.76568005    0.85681977    0.05326020    -0.12660000
opls_145-18    C    0.80232008    0.88667024    0.06491958    -0.12860000
opls_145-19    C    0.82543011    0.13141991    0.27305036    -0.17380000
opls_145-20    C    0.79793009    0.18303990    0.26290004    -0.17080000
opls_700-21    C    0.77210012    0.18563979    0.15886972    0.02880000
opls_145-22    C    0.77469996    0.13647005    0.06399018    -0.17080000
opls_145-23    C    0.80262005    0.08541008    0.07320039    -0.17140000
opls_700-24    C    0.18850006    0.06871021    0.26313969    0.06680000
opls_145-25    C    0.15237003    0.03800997    0.30173020    0.03030000
opls_700-26    C    0.17221993    0.92304020    0.22920982    0.06120000
opls_700-27    C    0.14562011    0.96706020    0.29444991    0.03250000
opls_145-28    C    0.12399002    0.07854977    0.35044960    -0.22100000
opls_145-29    C    0.11245990    0.94061987    0.34991963    -0.22100000
opls_182-30    C    0.04201988    0.91388978    0.55282960    -0.01960000
opls_182-31    C    0.99840992    0.91236988    0.59195008    -0.00840000
opls_182-32    C    0.94228001    0.83637997    0.33682036    -0.01120000
opls_182-33    C    0.97541004    0.84322977    0.43162976    -0.01980000
opls_166-34    C    0.92676006    0.99989991    0.21726012    0.14140000
opls_166-35    C    0.91750989    0.93187983    0.21844964    0.14140000
opls_543-36    C    0.48208995    0.35363985    0.21919978    0.20250000
opls_716-37    C    0.49961010    0.29289997    0.25111986    -0.20000000
opls_716-38    C    0.53893991    0.30348020    0.24570031    -0.20000000
opls_543-39    C    0.54460009    0.36963006    0.20555983    0.20370000
opls_700-40    C    0.44256006    0.36049015    0.18851988    -0.06390000
opls_700-41    C    0.58149997    0.39950004    0.18315976    -0.06160000
opls_543-42    C    0.58484007    0.46453988    0.22938030    0.20350000
opls_716-43    C    0.61696005    0.49107979    0.28820034    -0.20050000
opls_716-44    C    0.60938989    0.55740982    0.30442000    -0.20110000
opls_543-45    C    0.57141991    0.57047984    0.26404961    0.20080000
opls_142-46    C    0.29575003    0.16922018    0.15327969    0.06950000
opls_145-47    C    0.36057000    0.20291018    0.20881955    0.18890000
opls_145-48    C    0.37241005    0.23123023    0.08734985    -0.16990000
opls_145-49    C    0.40123005    0.28055011    0.07982016    -0.12060000
opls_700-50    C    0.41818014    0.30337010    0.19379037    0.08940000
opls_145-51    C    0.40860013    0.27102985    0.31383966    -0.13230000
opls_145-52    C    0.38011993    0.22077011    0.32081990    -0.16730000
opls_700-53    C    0.61456995    0.36247998    0.12976999    0.07270000
opls_145-54    C    0.61024997    0.29753023    0.07944022    -0.12760000
opls_145-55    C    0.64267987    0.25622022    0.05708983    -0.17420000
opls_145-56    C    0.68032001    0.28002012    0.07575964    0.19630000
opls_145-57    C    0.68543005    0.34846008    0.09500034    -0.16520000
opls_145-58    C    0.65281003    0.38976008    0.11491032    -0.13010000
opls_142-59    C    0.74189011    0.23836980    0.15349012    0.10110000
opls_145-60    C    0.22485009    0.04032009    0.29747971    -0.13110000
opls_145-61    C    0.26003011    0.07059995    0.25539957    -0.17510000
opls_700-62    C    0.25962000    0.13146995    0.18398979    0.05650000
opls_145-63    C    0.22374014    0.15964988    0.14864049    -0.12940000
opls_145-64    C    0.18864009    0.12902020    0.18813994    -0.17500000
opls_145-65    C    0.17957008    0.85820004    0.28156010    -0.09550000
opls_145-66    C    0.21016999    0.81899998    0.23253967    -0.13210000
opls_700-67    C    0.23450011    0.84351003    0.12992976    0.05190000
opls_145-68    C    0.22565011    0.90546002    0.07109024    -0.13920000
opls_145-69    C    0.19393995    0.94349001    0.11621967    -0.11550000
opls_700-70    C    0.80841997    0.93395023    0.16112015    0.06700000
opls_700-71    C    0.84866991    0.95920997    0.18213976    0.02760000
opls_700-72    C    0.82786005    0.08195990    0.17866962    0.07830000
opls_700-73    C    0.85776012    0.02831005    0.18927976    0.03070000
opls_145-74    C    0.87888988    0.91180987    0.19784991    -0.24670000
opls_145-75    C    0.89682014    0.04760980    0.20566018    -0.23680000
opls_182-76    C    0.98266001    0.06149007    0.13518953    -0.02280000
opls_182-77    C    0.99110986    0.13134984    0.18448956    0.01090000
opls_182-78    C    0.04961991    0.14650979    0.46682027    -0.01160000
opls_182-79    C    0.01157991    0.12943008    0.39818017    0.01390000
opls_166-80    C    0.08574994    0.98012021    0.43732014    0.21010000
opls_166-81    C    0.08440007    0.05391010    0.39746997    0.20950000
opls_543-82    C    0.51673009    0.64386986    0.20547020    0.20080000
opls_716-83    C    0.49883000    0.70609010    0.20206046    -0.20080000
opls_716-84    C    0.46099008    0.69607989    0.17094995    -0.20120000
opls_543-85    C    0.45663992    0.62816992    0.15203951    0.20300000
opls_700-86    C    0.55532989    0.63463987    0.24714994    -0.06400000
opls_700-87    C    0.42056994    0.59884994    0.12384970    -0.06310000
opls_543-88    C    0.41723014    0.52978991    0.11111966    0.20210000
opls_716-89    C    0.38293010    0.49762982    0.08117042    -0.20120000
opls_716-90    C    0.38875990    0.43113014    0.10528023    -0.20140000
opls_543-91    C    0.42728998    0.42206980    0.14374020    0.20260000
opls_142-92    C    0.19778010    0.83459983    0.63540971    0.06900000
opls_145-93    C    0.13950997    0.78956990    0.74216002    0.19050000
opls_145-94    C    0.12913990    0.75677023    0.86041969    -0.18110000
opls_145-95    C    0.09993995    0.70751992    0.86509007    -0.13190000
opls_700-96    C    0.08034989    0.69107979    0.75131957    0.09360000
opls_145-97    C    0.08827010    0.72890009    0.63599034    -0.13310000
opls_145-98    C    0.11770001    0.77729011    0.63123033    -0.16340000
opls_700-99    C    0.88583987    0.63813008    0.62513956    0.06810000
opls_145-100    C    0.88046003    0.69257016    0.53713016    -0.11510000
opls_145-101    C    0.84607007    0.73117018    0.54321997    -0.13950000
opls_145-102    C    0.81650013    0.71557983    0.63765039    0.19580000
opls_145-103    C    0.82174991    0.66106018    0.72348047    -0.19980000
opls_145-104    C    0.85589996    0.62292009    0.71790992    -0.09550000
opls_142-105    C    0.77025987    0.80708001    0.58865042    0.08460000
opls_145-106    C    0.27652995    0.95331005    0.74091985    -0.12380000
opls_145-107    C    0.23970009    0.92385995    0.72814013    -0.13000000
opls_700-108    C    0.23444006    0.87343006    0.63785011    0.05530000
opls_145-109    C    0.26568005    0.85681977    0.55326020    -0.12660000
opls_145-110    C    0.30232008    0.88667024    0.56490984    -0.12860000
opls_145-111    C    0.32543011    0.13141991    0.77305036    -0.17380000
opls_145-112    C    0.29793009    0.18303990    0.76290004    -0.17080000
opls_700-113    C    0.27210012    0.18563979    0.65886972    0.02880000
opls_145-114    C    0.27469996    0.13647005    0.56399018    -0.17080000
opls_145-115    C    0.30262005    0.08541008    0.57320039    -0.17140000
opls_700-116    C    0.68849010    0.06871021    0.76313969    0.06680000
opls_145-117    C    0.65237999    0.03800997    0.80173020    0.03030000
opls_700-118    C    0.67221993    0.92304020    0.72920982    0.06130000
opls_700-119    C    0.64562011    0.96706020    0.79444991    0.03230000
opls_145-120    C    0.62398006    0.07854977    0.85046032    -0.22100000
opls_145-121    C    0.61245990    0.94061987    0.84993034    -0.22100000
opls_182-122    C    0.54201988    0.91388978    0.05282960    -0.01960000
opls_182-123    C    0.49840992    0.91236988    0.09195008    -0.00840000
opls_182-124    C    0.44228001    0.83637997    0.83682036    -0.01120000
opls_182-125    C    0.47541004    0.84322977    0.93162976    -0.01980000
opls_166-126    C    0.42676006    0.99989991    0.71726012    0.14140000
opls_166-127    C    0.41750989    0.93187983    0.71844964    0.14130000
opls_543-128    C    0.98209991    0.35364986    0.71920952    0.20260000
opls_716-129    C    0.99960014    0.29289997    0.75111986    -0.20000000
opls_716-130    C    0.03896012    0.30347019    0.74570031    -0.20000000
opls_543-131    C    0.04455996    0.36965008    0.70555983    0.20370000
opls_700-132    C    0.94254014    0.36047013    0.68851988    -0.06390000
opls_700-133    C    0.08153014    0.39949003    0.68315976    -0.06150000
opls_543-134    C    0.08481986    0.46455990    0.72938030    0.20480000
opls_716-135    C    0.11697001    0.49107979    0.78820034    -0.20050000
opls_716-136    C    0.10938989    0.55739981    0.80441026    -0.20120000
opls_543-137    C    0.07142987    0.57050987    0.76404961    0.20080000
opls_142-138    C    0.79575003    0.16922018    0.65327969    0.06950000
opls_145-139    C    0.86056004    0.20290017    0.70881955    0.18900000
opls_145-140    C    0.87241005    0.23124024    0.58734985    -0.16870000
opls_145-141    C    0.90122009    0.28054010    0.57982016    -0.12060000
opls_700-142    C    0.91819010    0.30339012    0.69379037    0.08940000
opls_145-143    C    0.90858988    0.27102985    0.81385038    -0.13230000
opls_145-144    C    0.88011993    0.22078012    0.82081990    -0.16740000
opls_700-145    C    0.11455003    0.36247998    0.62976999    0.07050000
opls_145-146    C    0.11025993    0.29752022    0.57944022    -0.13000000
opls_145-147    C    0.14266991    0.25622022    0.55708983    -0.16960000
opls_145-148    C    0.18032001    0.28002012    0.57575964    0.19640000
opls_145-149    C    0.18543005    0.34846008    0.59500034    -0.16330000
opls_145-150    C    0.15281999    0.38976008    0.61491032    -0.13740000
opls_142-151    C    0.24189011    0.23836980    0.65349012    0.10140000
opls_145-152    C    0.72486005    0.04032009    0.79747971    -0.13170000
opls_145-153    C    0.76003011    0.07059995    0.75539957    -0.16780000
opls_700-154    C    0.75962000    0.13146995    0.68398979    0.05650000
opls_145-155    C    0.72374014    0.15964988    0.64865023    -0.13150000
opls_145-156    C    0.68865005    0.12902020    0.68813994    -0.17500000
opls_145-157    C    0.67957008    0.85821005    0.78156010    -0.09540000
opls_145-158    C    0.71016999    0.81899998    0.73253967    -0.09550000
opls_700-159    C    0.73450011    0.84351003    0.62992976    0.05190000
opls_145-160    C    0.72565011    0.90546002    0.57109024    -0.13920000
opls_145-161    C    0.69393995    0.94349001    0.61621967    -0.11550000
opls_700-162    C    0.30841997    0.93395023    0.66111041    0.06700000
opls_700-163    C    0.34866991    0.95920997    0.68213976    0.02760000
opls_700-164    C    0.32786005    0.08195990    0.67866962    0.07830000
opls_700-165    C    0.35776012    0.02831005    0.68927976    0.03070000
opls_145-166    C    0.37888988    0.91180987    0.69784991    -0.24660000
opls_145-167    C    0.39682014    0.04760980    0.70566018    -0.23670000
opls_182-168    C    0.48266001    0.06149007    0.63518953    -0.02280000
opls_182-169    C    0.49110986    0.13134984    0.68448956    0.01090000
opls_182-170    C    0.54961991    0.14650979    0.96682027    -0.01160000
opls_182-171    C    0.51157991    0.12944008    0.89818017    0.01390000
opls_166-172    C    0.58574994    0.98012021    0.93732014    0.21010000
opls_166-173    C    0.58441003    0.05391010    0.89746997    0.20950000
opls_543-174    C    0.01674005    0.64387987    0.70547020    0.20080000
opls_716-175    C    0.99883000    0.70608009    0.70206046    -0.20080000
opls_716-176    C    0.96099008    0.69608990    0.67094995    -0.20120000
opls_543-177    C    0.95663992    0.62812988    0.65203951    0.20300000
opls_700-178    C    0.05531993    0.63461985    0.74714994    -0.06400000
opls_700-179    C    0.92056994    0.59886996    0.62386041    -0.06310000
opls_543-180    C    0.91723014    0.52976989    0.61113038    0.20210000
opls_716-181    C    0.88293010    0.49762982    0.58118016    -0.20120000
opls_716-182    C    0.88874994    0.43112013    0.60528023    -0.20140000
opls_543-183    C    0.92730990    0.42209983    0.64374020    0.20260000
opls_750-184    N    0.67351003    0.83193988    0.23535028    -0.33080000
opls_750-185    N    0.28143992    0.75458021    0.15527975    -0.33700000
opls_542-186    N    0.50958997    0.40207991    0.19977009    -0.39310000
opls_542-187    N    0.55428996    0.51348991    0.22643039    -0.39320000
opls_750-188    N    0.32670000    0.16072987    0.22289010    -0.30250000
opls_750-189    N    0.71246986    0.23379009    0.07642016    -0.30080000
opls_542-190    N    0.49100001    0.59500991    0.17502996    -0.39320000
opls_542-191    N    0.44642013    0.48145994    0.14374994    -0.39350000
opls_750-192    N    0.17351003    0.83193988    0.73535028    -0.33730000
opls_750-193    N    0.78143992    0.75458021    0.65527975    -0.33710000
opls_542-194    N    0.00960989    0.40205990    0.69977009    -0.39320000
opls_542-195    N    0.05429992    0.51345988    0.72643039    -0.39320000
opls_750-196    N    0.82670000    0.16072987    0.72289984    -0.30250000
opls_750-197    N    0.21245990    0.23379009    0.57642016    -0.30090000
opls_542-198    N    0.99100001    0.59501992    0.67502996    -0.39320000
opls_542-199    N    0.94640988    0.48143992    0.64374994    -0.39360000
opls_179-200    O    0.04753008    0.95441006    0.43907956    -0.23230000
opls_180-201    O    0.97409006    0.90811997    0.48299025    -0.15550000
opls_179-202    O    0.94769002    0.88469992    0.23233022    -0.25110000
opls_179-203    O    0.96556990    0.01950995    0.23672976    -0.25010000
opls_180-204    O    0.01831987    0.12940005    0.27205958    -0.19110000
opls_179-205    O    0.07118995    0.08940976    0.50691009    -0.21010000
opls_179-206    O    0.54753008    0.95441006    0.93907956    -0.23230000
opls_180-207    O    0.47409006    0.90811997    0.98299025    -0.15560000
opls_179-208    O    0.44769002    0.88469992    0.73233022    -0.25110000
opls_179-209    O    0.46556990    0.01950995    0.73672976    -0.25020000
opls_180-210    O    0.51831987    0.12940005    0.77205958    -0.19110000
opls_179-211    O    0.57118995    0.08940976    0.00691009    -0.21010000
F2_Co4+2-212    Co    0.50033014    0.49819984    0.18482956    0.67240000
F2_Co4+2-213    Co    0.00033014    0.49820985    0.68484028    0.67250000
opls_144-214    H    0.69383010    0.80147986    0.05503035    0.10350000
opls_146-215    H    0.64516986    0.76670987    0.44737986    0.23790000
opls_146-216    H    0.59356997    0.68068023    0.45629000    0.05950000
opls_146-217    H    0.57325986    0.71821976    0.04718014    0.10860000
opls_146-218    H    0.62393992    0.80406024    0.04026031    0.08020000
opls_146-219    H    0.40278000    0.70499009    0.96361024    0.07690000
opls_146-220    H    0.34316996    0.77288005    0.97483024    0.10260000
opls_146-221    H    0.29935993    0.64866978    0.29683965    0.07580000
opls_146-222    H    0.35928986    0.58190986    0.28805031    0.07810000
opls_144-223    H    0.28772992    0.82697982    0.00728029    0.06590000
opls_146-224    H    0.78039002    0.98975007    0.31553967    0.08610000
opls_146-225    H    0.71553987    0.93914001    0.29094957    0.10480000
opls_146-226    H    0.76218000    0.81871021    0.98148996    0.23790000
opls_146-227    H    0.82626001    0.87163991    0.00075014    0.10670000
opls_146-228    H    0.84471991    0.12957020    0.35505957    0.23710000
opls_146-229    H    0.79639010    0.22038025    0.33733962    0.23710000
opls_146-230    H    0.75508002    0.13767016    0.98307988    0.10860000
opls_146-231    H    0.80459007    0.04840003    0.99856986    0.10830000
opls_146-232    H    0.12911998    0.13178024    0.35666995    0.11860000
opls_146-233    H    0.10526999    0.88829023    0.33947022    0.11280000
opls_185-234    H    0.05828009    0.93214007    0.63800988    0.07820000
opls_185-235    H    0.05215999    0.86217020    0.53305016    0.05730000
opls_185-236    H    0.99224002    0.87187012    0.66629030    0.04270000
opls_185-237    H    0.99120009    0.96013983    0.64000994    0.06570000
opls_185-238    H    0.94299010    0.78541008    0.29634963    0.07130000
opls_185-239    H    0.91390000    0.84231993    0.39157014    0.05250000
opls_185-240    H    0.00365999    0.83516986    0.37786979    0.05570000
opls_185-241    H    0.97167008    0.80377998    0.50881955    0.05330000
opls_547-242    H    0.48573998    0.24497988    0.27128021    0.10830000
opls_547-243    H    0.56087993    0.26628999    0.27004978    0.11460000
opls_547-244    H    0.64333987    0.46557983    0.31838047    0.11820000
opls_547-245    H    0.63051994    0.59199013    0.34023011    0.24310000
opls_144-246    H    0.29417987    0.21099011    0.08394011    0.07100000
opls_146-247    H    0.35853993    0.21695009    0.99898000    0.23630000
opls_146-248    H    0.40908992    0.30310986    0.98553976    0.06700000
opls_146-249    H    0.42146986    0.28728981    0.40295966    0.23790000
opls_146-250    H    0.37141991    0.19887997    0.41485966    0.05950000
opls_146-251    H    0.58201994    0.27744025    0.05733046    0.24350000
opls_146-252    H    0.63833997    0.20480993    0.03063996    0.10580000
opls_146-253    H    0.71451986    0.36989981    0.09424046    0.11990000
opls_146-254    H    0.65844004    0.44267977    0.11669021    0.09330000
opls_144-255    H    0.74257998    0.27786013    0.22380001    0.10150000
opls_146-256    H    0.22612994    0.99500991    0.35775035    0.08220000
opls_146-257    H    0.28753014    0.04731003    0.28092005    0.11870000
opls_146-258    H    0.22279013    0.20635985    0.09255994    0.07680000
opls_146-259    H    0.16150009    0.15189024    0.15704989    0.11970000
opls_146-260    H    0.16359988    0.83921007    0.36660984    0.08020000
opls_146-261    H    0.21582988    0.77081015    0.27926973    0.10580000
opls_146-262    H    0.24438010    0.92585979    0.99394040    0.08350000
opls_146-263    H    0.18773988    0.99056982    0.06614027    0.10740000
opls_146-264    H    0.87243993    0.85882011    0.19492046    0.11840000
opls_146-265    H    0.90400009    0.10019017    0.20928035    0.12150000
opls_185-266    H    0.96361013    0.06661979    0.04883046    0.05570000
opls_185-267    H    0.01053002    0.03812007    0.10102000    0.05640000
opls_185-268    H    0.00206991    0.16271019    0.10029032    0.04360000
opls_185-269    H    0.96371998    0.15559014    0.22114041    0.05650000
opls_185-270    H    0.06800013    0.18179976    0.40577026    0.03970000
opls_185-271    H    0.04143986    0.17382992    0.55629975    0.05850000
opls_185-272    H    0.98940993    0.16844997    0.42280047    0.05730000
opls_185-273    H    0.00023992    0.07991002    0.43370970    0.05570000
opls_547-274    H    0.51124010    0.75372993    0.22666030    0.10580000
opls_547-275    H    0.43886990    0.73489010    0.16834978    0.11450000
opls_547-276    H    0.35539991    0.52006996    0.05297963    0.11540000
opls_547-277    H    0.36592992    0.39403001    0.10052997    0.12610000
opls_144-278    H    0.19383010    0.80147986    0.55503035    0.11780000
opls_146-279    H    0.14516986    0.76670987    0.94737986    0.23790000
opls_146-280    H    0.09356997    0.68068023    0.95628026    0.06170000
opls_146-281    H    0.07325986    0.71821976    0.54718014    0.10870000
opls_146-282    H    0.12393992    0.80406024    0.54026031    0.08020000
opls_146-283    H    0.90278000    0.70499009    0.46361024    0.07690000
opls_146-284    H    0.84316996    0.77288005    0.47483024    0.10120000
opls_146-285    H    0.79935993    0.64866978    0.79683965    0.07580000
opls_146-286    H    0.85928986    0.58190986    0.78805031    0.07810000
opls_144-287    H    0.78772992    0.82697982    0.50728029    0.06590000
opls_146-288    H    0.28039002    0.98975007    0.81553967    0.08610000
opls_146-289    H    0.21553987    0.93914001    0.79094957    0.10480000
opls_146-290    H    0.26218000    0.81871021    0.48148022    0.10830000
opls_146-291    H    0.32626001    0.87163991    0.50074040    0.10670000
opls_146-292    H    0.34471991    0.12957020    0.85505957    0.23720000
opls_146-293    H    0.29639010    0.22038025    0.83733962    0.23710000
opls_146-294    H    0.25508002    0.13767016    0.48307013    0.10860000
opls_146-295    H    0.30459007    0.04840003    0.49856986    0.10830000
opls_146-296    H    0.62911998    0.13178024    0.85666995    0.11850000
opls_146-297    H    0.60526999    0.88829023    0.83947022    0.11280000
opls_185-298    H    0.55828009    0.93214007    0.13800988    0.07820000
opls_185-299    H    0.55215999    0.86217020    0.03305016    0.05730000
opls_185-300    H    0.49224002    0.87187012    0.16629030    0.04270000
opls_185-301    H    0.49120009    0.96013983    0.14000994    0.06570000
opls_185-302    H    0.44299010    0.78541008    0.79634963    0.07120000
opls_185-303    H    0.41390000    0.84231993    0.89157014    0.05250000
opls_185-304    H    0.50365999    0.83516986    0.87786979    0.05570000
opls_185-305    H    0.47167008    0.80377998    0.00881955    0.05320000
opls_547-306    H    0.98573998    0.24497988    0.77128021    0.10890000
opls_547-307    H    0.06087993    0.26630000    0.77004004    0.11360000
opls_547-308    H    0.14333987    0.46558984    0.81838047    0.11680000
opls_547-309    H    0.13052990    0.59199013    0.84022037    0.08680000
opls_144-310    H    0.79417987    0.21099011    0.58394011    0.07090000
opls_146-311    H    0.85853993    0.21695009    0.49898000    0.23630000
opls_146-312    H    0.90908992    0.30310986    0.48553976    0.07420000
opls_146-313    H    0.92146986    0.28728981    0.90295966    0.23790000
opls_146-314    H    0.87141991    0.19887997    0.91485966    0.07700000
opls_146-315    H    0.08201994    0.27744025    0.55733046    0.24350000
opls_146-316    H    0.13833997    0.20480993    0.53063996    0.10580000
opls_146-317    H    0.21451986    0.36989981    0.59424046    0.11990000
opls_146-318    H    0.15844004    0.44267977    0.61669021    0.09330000
opls_144-319    H    0.24257998    0.27786013    0.72380001    0.10150000
opls_146-320    H    0.72612994    0.99500991    0.85775035    0.08220000
opls_146-321    H    0.78753014    0.04731003    0.78092005    0.11880000
opls_146-322    H    0.72279013    0.20635985    0.59255994    0.07680000
opls_146-323    H    0.66150009    0.15190025    0.65704989    0.12080000
opls_146-324    H    0.66359988    0.83921007    0.86660984    0.08020000
opls_146-325    H    0.71582988    0.77081015    0.77928045    0.10570000
opls_146-326    H    0.74438010    0.92585979    0.49394040    0.08350000
opls_146-327    H    0.68773988    0.99056982    0.56614027    0.10740000
opls_146-328    H    0.37243993    0.85882011    0.69492046    0.11850000
opls_146-329    H    0.40400009    0.10019017    0.70928035    0.12150000
opls_185-330    H    0.46361013    0.06661979    0.54883046    0.05570000
opls_185-331    H    0.51053002    0.03812007    0.60102000    0.05640000
opls_185-332    H    0.50206991    0.16271019    0.60029032    0.04360000
opls_185-333    H    0.46371998    0.15559014    0.72114041    0.05650000
opls_185-334    H    0.56800013    0.18179976    0.90577026    0.03970000
opls_185-335    H    0.54143986    0.17382992    0.05629975    0.05850000
opls_185-336    H    0.48940993    0.16844997    0.92280047    0.05640000
opls_185-337    H    0.50023992    0.07991002    0.93370970    0.05570000
opls_547-338    H    0.01124010    0.75372993    0.72666030    0.10580000
opls_547-339    H    0.93886990    0.73489010    0.66835952    0.11660000
opls_547-340    H    0.85539991    0.52006996    0.55297963    0.11720000
opls_547-341    H    0.86592992    0.39403001    0.60052997    0.09680000
