#======================================================================
# Crystal Data Generated By AuToFF
#----------------------------------------------------------------------

data_AuToFF_phase_1

_cell_length_a                         29.5500
_cell_length_b                         29.5500
_cell_length_c                         3.4700
_cell_angle_alpha                      90.00
_cell_angle_beta                       90.00
_cell_angle_gamma                      120.00
_symmetry_space_group_name_H-M_alt     'P 1'
_symmetry_space_group_IT_number        1

loop_
_space_group_symop_operation_xyz
   'x, y, z'

loop_
   _atom_site_label
   _atom_site_type_symbol
   _atom_site_fract_x
   _atom_site_fract_y
   _atom_site_fract_z
   _atom_site_charge
opls_238-0    N    0.59420010    0.18670004    0.56670029    -0.23320000
opls_238-1    N    0.81329986    0.40749989    0.56670029    -0.23310000
opls_238-2    N    0.59250004    0.40580007    0.56670029    -0.23320000
opls_238-3    N    0.40579990    0.81329996    0.56670029    -0.23320000
opls_238-4    N    0.18670014    0.59250011    0.56670029    -0.23320000
opls_238-5    N    0.40749996    0.59419993    0.56670029    -0.23320000
opls_142-6    C    0.64260000    0.22730017    0.57249856    -0.05100000
opls_145-7    C    0.57440014    0.13550011    0.57370029    0.18580000
opls_145-8    C    0.52249981    0.11159995    0.69759942    -0.16510000
opls_145-9    C    0.49269994    0.05710004    0.70829971    -0.11560000
opls_700-10    C    0.51490024    0.02720013    0.59319885    0.09250000
opls_145-11    C    0.56679991    0.05250000    0.47010086    -0.09420000
opls_700-12    C    0.59730015    0.10650012    0.45500000    0.08030000
opls_700-13    C    0.65230022    0.27960009    0.56740058    -0.21300000
opls_231-14    C    0.29310004    0.68129991    0.56670029    0.31670000
opls_701-15    C    0.65169983    0.12960000    0.29859942    -0.41940000
opls_142-16    C    0.77270002    0.41529988    0.57249856    -0.05100000
opls_145-17    C    0.86450005    0.43889993    0.57370029    0.18570000
opls_145-18    C    0.88839987    0.41089990    0.69759942    -0.16510000
opls_145-19    C    0.94289980    0.43559995    0.70829971    -0.11570000
opls_700-20    C    0.97280001    0.48770019    0.59319885    0.09250000
opls_145-21    C    0.94749997    0.51430012    0.47010086    -0.09420000
opls_700-22    C    0.89349988    0.49080010    0.45500000    0.08030000
opls_700-23    C    0.72040000    0.37269983    0.56740058    -0.21300000
opls_231-24    C    0.31869991    0.61179983    0.56670029    0.31670000
opls_701-25    C    0.87039997    0.52210011    0.29859942    -0.41940000
opls_142-26    C    0.58469998    0.35739995    0.57249856    -0.05100000
opls_145-27    C    0.56110015    0.42559997    0.57370029    0.18570000
opls_145-28    C    0.58909999    0.47750014    0.69759942    -0.16510000
opls_145-29    C    0.56439992    0.50730001    0.70829971    -0.11570000
opls_700-30    C    0.51229995    0.48510006    0.59319885    0.09250000
opls_145-31    C    0.48570011    0.43319989    0.47010086    -0.09420000
opls_700-32    C    0.50920017    0.40270016    0.45500000    0.08030000
opls_700-33    C    0.62730012    0.34770007    0.56740058    -0.21300000
opls_231-34    C    0.38819985    0.70689987    0.56670029    0.31670000
opls_701-35    C    0.47789986    0.34829989    0.29859942    -0.41940000
opls_142-36    C    0.35740000    0.77269983    0.57249856    -0.05100000
opls_145-37    C    0.42559986    0.86449989    0.57370029    0.18570000
opls_145-38    C    0.47749985    0.88840005    0.69759942    -0.16510000
opls_145-39    C    0.50730006    0.94289996    0.70829971    -0.11570000
opls_700-40    C    0.48510010    0.97279987    0.59319885    0.09250000
opls_145-41    C    0.43320009    0.94750000    0.47010086    -0.09420000
opls_700-42    C    0.40269985    0.89349988    0.45500000    0.08030000
opls_700-43    C    0.34769978    0.72039991    0.56740058    -0.21300000
opls_231-44    C    0.70689996    0.31870009    0.56670029    0.31670000
opls_701-45    C    0.34829983    0.87040000    0.29859942    -0.41930000
opls_142-46    C    0.22729998    0.58470012    0.57249856    -0.05100000
opls_145-47    C    0.13549995    0.56110007    0.57370029    0.18570000
opls_145-48    C    0.11160013    0.58910010    0.69759942    -0.16510000
opls_145-49    C    0.05710020    0.56440005    0.70829971    -0.11570000
opls_700-50    C    0.02720018    0.51230020    0.59319885    0.09250000
opls_145-51    C    0.05250003    0.48569988    0.47010086    -0.09410000
opls_700-52    C    0.10649978    0.50919990    0.45500000    0.08030000
opls_700-53    C    0.27960000    0.62730017    0.56740058    -0.21290000
opls_231-54    C    0.68130009    0.38820017    0.56670029    0.31670000
opls_701-55    C    0.12960003    0.47789989    0.29859942    -0.41940000
opls_142-56    C    0.41530002    0.64260005    0.57249856    -0.05100000
opls_145-57    C    0.43889985    0.57440003    0.57370029    0.18570000
opls_145-58    C    0.41090001    0.52249986    0.69759942    -0.16510000
opls_145-59    C    0.43560008    0.49269999    0.70829971    -0.11570000
opls_700-60    C    0.48770005    0.51489994    0.59319885    0.09250000
opls_145-61    C    0.51430023    0.56680011    0.47010086    -0.09420000
opls_700-62    C    0.49079983    0.59729984    0.45500000    0.08030000
opls_700-63    C    0.37269988    0.65229993    0.56740058    -0.21300000
opls_231-64    C    0.61180015    0.29310013    0.56670029    0.31680000
opls_701-65    C    0.52210014    0.65170011    0.29859942    -0.41920000
opls_272-66    O    0.25840004    0.69520008    0.56540058    -0.47610000
opls_272-67    O    0.30480001    0.56320003    0.56540058    -0.47620000
opls_272-68    O    0.43679995    0.74159990    0.56540058    -0.47610000
opls_272-69    O    0.74159996    0.30479992    0.56540058    -0.47610000
opls_272-70    O    0.69519999    0.43679997    0.56540058    -0.47620000
opls_272-71    O    0.56320005    0.25840010    0.56540058    -0.47620000
opls_910-72    H    0.56700015    0.20099996    0.56570029    0.26470000
opls_144-73    H    0.67670004    0.22260009    0.58740058    0.11240000
opls_146-74    H    0.50629991    0.13579982    0.79070029    0.10870000
opls_146-75    H    0.45270004    0.03820007    0.81459942    0.11110000
opls_146-76    H    0.58330006    0.02889995    0.36470029    0.11710000
opls_702-77    H    0.50059991    0.33849998    0.09980115    0.12690000
opls_702-78    H    0.44370008    0.34409999    0.14189914    0.12430000
opls_702-79    H    0.46320013    0.31819992    0.52500000    0.12720000
opls_910-80    H    0.79899992    0.36599983    0.56570029    0.26470000
opls_144-81    H    0.77740000    0.45410016    0.58740058    0.11240000
opls_146-82    H    0.86419984    0.37049984    0.79070029    0.10870000
opls_146-83    H    0.96179991    0.41449999    0.81459942    0.11100000
opls_146-84    H    0.97109987    0.55440007    0.36470029    0.11710000
opls_702-85    H    0.66150010    0.16210003    0.09980115    0.12690000
opls_702-86    H    0.65589986    0.09960006    0.14189914    0.12430000
opls_702-87    H    0.68180013    0.14499991    0.52500000    0.12730000
opls_910-88    H    0.63400008    0.43299982    0.56570029    0.26470000
opls_144-89    H    0.54590015    0.32330014    0.58740058    0.11240000
opls_146-90    H    0.62950006    0.49369995    0.79070029    0.10870000
opls_146-91    H    0.58550005    0.54729993    0.81459942    0.11100000
opls_146-92    H    0.44560007    0.41669998    0.36470029    0.11710000
opls_702-93    H    0.83789999    0.49939999    0.09980115    0.12700000
opls_702-94    H    0.90040006    0.55629996    0.14189914    0.12430000
opls_702-95    H    0.85500009    0.53680017    0.52500000    0.12720000
opls_910-96    H    0.43300019    0.79900004    0.56570029    0.26470000
opls_144-97    H    0.32329996    0.77739991    0.58740058    0.11240000
opls_146-98    H    0.49370009    0.86420018    0.79070029    0.10870000
opls_146-99    H    0.54729996    0.96179993    0.81459942    0.11100000
opls_146-100    H    0.41669994    0.97110005    0.36470029    0.11710000
opls_702-101    H    0.49940009    0.66150002    0.09980115    0.12690000
opls_702-102    H    0.55629992    0.65590001    0.14189914    0.12430000
opls_702-103    H    0.53680021    0.68180008    0.52500000    0.12730000
opls_910-104    H    0.20100008    0.63400017    0.56570029    0.26470000
opls_144-105    H    0.22260000    0.54589984    0.58740058    0.11240000
opls_146-106    H    0.13580016    0.62950016    0.79070029    0.10870000
opls_146-107    H    0.03820009    0.58550001    0.81459942    0.11100000
opls_146-108    H    0.02889979    0.44559993    0.36470029    0.11720000
opls_702-109    H    0.33849990    0.83789997    0.09980115    0.12690000
opls_702-110    H    0.34410014    0.90039994    0.14189914    0.12430000
opls_702-111    H    0.31820021    0.85500009    0.52500000    0.12720000
opls_910-112    H    0.36600026    0.56700018    0.56570029    0.26470000
opls_144-113    H    0.45409985    0.67669986    0.58740058    0.11250000
opls_146-114    H    0.37049994    0.50630005    0.79070029    0.10870000
opls_146-115    H    0.41449995    0.45270007    0.81459942    0.11100000
opls_146-116    H    0.55439993    0.58330002    0.36470029    0.11710000
opls_702-117    H    0.16210001    0.50060001    0.09980115    0.12690000
opls_702-118    H    0.09959994    0.44370004    0.14189914    0.12430000
opls_702-119    H    0.14499991    0.46319983    0.52500000    0.12720000
