#======================================================================
# Crystal Data Generated By AuToFF
#----------------------------------------------------------------------

data_AuToFF_phase_1

_cell_length_a                         22.9563
_cell_length_b                         22.9563
_cell_length_c                         3.9577
_cell_angle_alpha                      90.00
_cell_angle_beta                       90.00
_cell_angle_gamma                      120.00
_symmetry_space_group_name_H-M_alt     'P 1'
_symmetry_space_group_IT_number        1

loop_
_space_group_symop_operation_xyz
   'x, y, z'

loop_
   _atom_site_label
   _atom_site_type_symbol
   _atom_site_fract_x
   _atom_site_fract_y
   _atom_site_fract_z
   _atom_site_charge
opls_750-0    N    0.16968001    0.82226014    0.94111984    -0.26190000
opls_520-1    N    0.96710984    0.93379975    0.87294893    -0.44090000
opls_750-2    N    0.17773991    0.34742017    0.94111984    -0.26190000
opls_520-3    N    0.06620007    0.03331013    0.87294893    -0.44090000
opls_750-4    N    0.65257989    0.83032020    0.94111984    -0.26190000
opls_520-5    N    0.96669009    0.03289012    0.87294893    -0.44090000
opls_239-6    N    0.33333013    0.66666985    0.10499027    -0.15050000
opls_700-7    C    0.06995012    0.93080992    0.88267933    0.02770000
opls_523-8    C    0.04029999    0.86537976    0.77594057    -0.22240000
opls_145-9    C    0.07433012    0.83098013    0.79365035    -0.22900000
opls_145-10    C    0.13776003    0.86052984    0.92320034    0.18000000
opls_145-11    C    0.16811005    0.92641974    0.02457993    -0.22980000
opls_523-12    C    0.13445999    0.96119008    0.00386083    -0.22230000
opls_142-13    C    0.22138976    0.83588991    0.11492028    0.09560000
opls_145-14    C    0.24955997    0.79231004    0.10868939    0.03860000
opls_145-15    C    0.21761991    0.73154017    0.94789903    -0.22240000
opls_145-16    C    0.24489996    0.69076000    0.94787124    -0.22900000
opls_916-17    C    0.30492008    0.70941021    0.10553099    0.15070000
opls_145-18    C    0.33646990    0.77074998    0.26427976    -0.22900000
opls_145-19    C    0.30922995    0.81155983    0.26726887    -0.22220000
opls_531-20    C    0.93340996    0.96649974    0.87258003    0.32560000
opls_700-21    C    0.06919024    0.13914019    0.88267933    0.02770000
opls_523-22    C    0.13462006    0.17492005    0.77594057    -0.22240000
opls_145-23    C    0.16902022    0.24335010    0.79365035    -0.22900000
opls_145-24    C    0.13947016    0.27723012    0.92320034    0.18000000
opls_145-25    C    0.07358008    0.24169020    0.02457993    -0.22980000
opls_523-26    C    0.03880989    0.17327021    0.00386083    -0.22230000
opls_142-27    C    0.16410980    0.38549973    0.11492028    0.09560000
opls_145-28    C    0.20769005    0.45725008    0.10868939    0.03860000
opls_145-29    C    0.26846003    0.48608000    0.94789903    -0.22240000
opls_145-30    C    0.30923974    0.55413984    0.94787124    -0.22900000
opls_916-31    C    0.29059010    0.59551003    0.10553099    0.15070000
opls_145-32    C    0.22924982    0.56571989    0.26427976    -0.22900000
opls_145-33    C    0.18843987    0.49767011    0.26726887    -0.22220000
opls_531-34    C    0.03350018    0.96691019    0.87258003    0.32560000
opls_700-35    C    0.86086007    0.93004989    0.88267933    0.02770000
opls_523-36    C    0.82507995    0.95970019    0.77594057    -0.22240000
opls_145-37    C    0.75665009    0.92566977    0.79365035    -0.22900000
opls_145-38    C    0.72276981    0.86224004    0.92320034    0.18000000
opls_145-39    C    0.75830987    0.83189006    0.02457993    -0.22980000
opls_523-40    C    0.82672968    0.86553971    0.00386083    -0.22220000
opls_142-41    C    0.61449975    0.77860985    0.11492028    0.09560000
opls_145-42    C    0.54274998    0.75043987    0.10868939    0.03860000
opls_145-43    C    0.51392006    0.78237983    0.94789903    -0.22240000
opls_145-44    C    0.44585987    0.75510016    0.94787124    -0.22900000
opls_916-45    C    0.40448982    0.69507976    0.10553099    0.15070000
opls_145-46    C    0.43428028    0.66353013    0.26427976    -0.22900000
opls_145-47    C    0.50233018    0.69077006    0.26726887    -0.22220000
opls_531-48    C    0.03308987    0.06659008    0.87258003    0.32560000
opls_526-49    H    0.99099993    0.84122020    0.67668090    0.20500000
opls_146-50    H    0.05128993    0.78075011    0.70909114    0.20500000
opls_146-51    H    0.21766998    0.95149979    0.11715896    0.20510000
opls_526-52    H    0.15832003    0.01156999    0.08778078    0.20500000
opls_144-53    H    0.24416015    0.87860009    0.27277964    0.10040000
opls_146-54    H    0.17146000    0.71564992    0.82266973    0.20500000
opls_146-55    H    0.21833987    0.64414001    0.82847108    0.20520000
opls_146-56    H    0.38276991    0.78774985    0.38294969    0.20520000
opls_146-57    H    0.33482021    0.85821001    0.39417086    0.20500000
opls_526-58    H    0.15877989    0.14978014    0.67668090    0.20500000
opls_146-59    H    0.21925011    0.27054023    0.70909114    0.20500000
opls_146-60    H    0.04850003    0.26617017    0.11715896    0.20510000
opls_526-61    H    0.98843016    0.14675007    0.08778078    0.20500000
opls_144-62    H    0.12139982    0.36555983    0.27277964    0.10030000
opls_146-63    H    0.28435007    0.45581000    0.82266973    0.20500000
opls_146-64    H    0.35586019    0.57419995    0.82847108    0.20520000
opls_146-65    H    0.21225023    0.59502010    0.38294969    0.20520000
opls_146-66    H    0.14178989    0.47661003    0.39417086    0.20500000
opls_526-67    H    0.85022000    0.00900017    0.67668090    0.20500000
opls_146-68    H    0.72946021    0.94871016    0.70909114    0.20500000
opls_146-69    H    0.73382999    0.78233003    0.11715896    0.20510000
opls_526-70    H    0.85324981    0.84167994    0.08778078    0.20500000
opls_144-71    H    0.63444003    0.75584007    0.27277964    0.10030000
opls_146-72    H    0.54418993    0.82854008    0.82266973    0.20500000
opls_146-73    H    0.42579994    0.78166004    0.82847108    0.20520000
opls_146-74    H    0.40497985    0.61723004    0.38294969    0.20520000
opls_146-75    H    0.52338990    0.66517997    0.39417086    0.20500000
