#======================================================================
# Crystal Data Generated By AuToFF
#----------------------------------------------------------------------

data_AuToFF_phase_1

_cell_length_a                         26.9780
_cell_length_b                         47.3570
_cell_length_c                         4.2271
_cell_angle_alpha                      90.00
_cell_angle_beta                       90.61
_cell_angle_gamma                      90.00
_symmetry_space_group_name_H-M_alt     'P 1'
_symmetry_space_group_IT_number        1

loop_
_space_group_symop_operation_xyz
   'x, y, z'

loop_
   _atom_site_label
   _atom_site_type_symbol
   _atom_site_fract_x
   _atom_site_fract_y
   _atom_site_fract_z
   _atom_site_charge
opls_531-0    C    0.54408016    0.69000992    0.51917972    0.28420000
opls_531-1    C    0.04408016    0.19000992    0.51917972    0.28420000
opls_531-2    C    0.45592021    0.69000992    0.48082028    0.28420000
opls_531-3    C    0.95592021    0.19000992    0.48082028    0.28420000
opls_531-4    C    0.50000000    0.73355006    0.50000000    0.28420000
opls_531-5    C    1.00000000    0.23355006    0.50000000    0.28420000
opls_700-6    C    0.58936003    0.67493000    0.53649044    0.00460000
opls_700-7    C    0.08936003    0.17493000    0.53649044    0.00460000
opls_700-8    C    0.41063997    0.67493000    0.46350956    0.00460000
opls_700-9    C    0.91063997    0.17493000    0.46350956    0.00460000
opls_700-10    C    0.50000000    0.76342990    0.50000000    0.01870000
opls_700-11    C    1.00000000    0.26342990    0.50000000    0.01870000
opls_523-12    C    0.63549018    0.68868995    0.49387962    -0.20110000
opls_523-13    C    0.13549018    0.18868995    0.49387962    -0.20110000
opls_523-14    C    0.36451019    0.68868995    0.50612038    -0.20110000
opls_523-15    C    0.86451019    0.18868995    0.50612038    -0.20110000
opls_523-16    C    0.45804003    0.77896995    0.39694005    -0.20110000
opls_523-17    C    0.95804003    0.27896995    0.39694005    -0.20110000
opls_523-18    C    0.54195995    0.77896995    0.60305049    -0.20110000
opls_523-19    C    0.04195997    0.27896995    0.60305995    -0.20110000
opls_523-20    C    0.40972994    0.64543996    0.40581898    -0.20110000
opls_523-21    C    0.90972994    0.14543996    0.40581898    -0.20110000
opls_523-22    C    0.59027006    0.64543996    0.59418102    -0.20110000
opls_523-23    C    0.09027006    0.14543996    0.59418102    -0.20110000
opls_145-24    C    0.63510992    0.63030006    0.60327051    -0.20100000
opls_145-25    C    0.13510992    0.13030006    0.60327051    -0.20100000
opls_145-26    C    0.36489008    0.63030006    0.39672949    -0.20100000
opls_145-27    C    0.86489008    0.13030006    0.39672949    -0.20100000
opls_145-28    C    0.54213022    0.80870009    0.59736069    -0.19940000
opls_145-29    C    0.04213022    0.30870009    0.59736069    -0.19940000
opls_145-30    C    0.45787015    0.80870009    0.40263931    -0.19940000
opls_145-31    C    0.95787015    0.30870009    0.40263931    -0.19940000
opls_145-32    C    0.31960001    0.67361995    0.49377079    -0.20080000
opls_145-33    C    0.81960001    0.17361995    0.49377079    -0.20080000
opls_145-34    C    0.68039999    0.67361995    0.50622921    -0.20080000
opls_145-35    C    0.18039999    0.17361995    0.50622921    -0.20080000
opls_916-36    C    0.95575995    0.55392001    0.51423988    0.13810000
opls_916-37    C    0.45575995    0.05392001    0.51423988    0.13810000
opls_916-38    C    0.04424003    0.55392001    0.48575065    0.13810000
opls_916-39    C    0.54424003    0.05392001    0.48575065    0.13810000
opls_145-40    C    0.91557021    0.54489009    0.70303961    -0.23330000
opls_145-41    C    0.41557021    0.04489009    0.70303961    -0.23330000
opls_145-42    C    0.08443016    0.54489009    0.29696039    -0.23330000
opls_145-43    C    0.58443016    0.04489009    0.29696039    -0.23330000
opls_145-44    C    0.87009012    0.55944992    0.71276077    -0.22590000
opls_145-45    C    0.37009012    0.05944992    0.71276077    -0.22590000
opls_145-46    C    0.12990988    0.55944992    0.28723923    -0.22590000
opls_145-47    C    0.62990988    0.05944992    0.28723923    -0.22590000
opls_700-48    C    0.86365012    0.58472010    0.54065902    0.07340000
opls_700-49    C    0.36365012    0.08472010    0.54065902    0.07340000
opls_700-50    C    0.13634988    0.58472010    0.45934098    0.07340000
opls_700-51    C    0.63634988    0.08472010    0.45934098    0.07340000
opls_145-52    C    0.90342002    0.59484997    0.35991966    -0.22630000
opls_145-53    C    0.40342002    0.09484997    0.35991966    -0.22630000
opls_145-54    C    0.09657998    0.59484997    0.64008034    -0.22630000
opls_145-55    C    0.59657998    0.09484997    0.64008034    -0.22630000
opls_145-56    C    0.94791992    0.57946006    0.34435964    -0.23330000
opls_145-57    C    0.44791992    0.07946006    0.34435964    -0.23330000
opls_145-58    C    0.05208008    0.57946006    0.65564036    -0.23330000
opls_145-59    C    0.55208008    0.07946006    0.65564036    -0.23330000
opls_145-60    C    0.95984013    0.49316996    0.38036983    -0.23330000
opls_145-61    C    0.45984013    0.99316996    0.38036983    -0.23330000
opls_145-62    C    0.04016024    0.49316996    0.61963017    -0.23330000
opls_145-63    C    0.54016024    0.99316996    0.61963017    -0.23330000
opls_145-64    C    0.95916998    0.46344004    0.38725910    -0.20080000
opls_145-65    C    0.45916998    0.96344004    0.38725910    -0.20080000
opls_145-66    C    0.04083002    0.46344004    0.61274090    -0.20080000
opls_145-67    C    0.54083002    0.96344004    0.61274090    -0.20080000
opls_700-68    C    0.81835005    0.59938995    0.54742054    0.07310000
opls_700-69    C    0.31835005    0.09938995    0.54742054    0.07310000
opls_700-70    C    0.18164995    0.59938995    0.45257946    0.07310000
opls_700-71    C    0.68164995    0.09938995    0.45257946    0.07310000
opls_145-72    C    0.77697022    0.58932006    0.37538977    -0.22630000
opls_145-73    C    0.27697022    0.08932006    0.37538977    -0.22630000
opls_145-74    C    0.22303015    0.58932006    0.62461023    -0.22630000
opls_145-75    C    0.72303015    0.08932006    0.62461023    -0.22630000
opls_145-76    C    0.73158995    0.60400004    0.37962932    -0.22590000
opls_145-77    C    0.23158995    0.10400004    0.37962932    -0.22590000
opls_145-78    C    0.26841005    0.60400004    0.62037068    -0.22590000
opls_145-79    C    0.76841005    0.10400004    0.62037068    -0.22590000
opls_700-80    C    0.72616001    0.62899001    0.55911007    0.07840000
opls_700-81    C    0.22616001    0.12899001    0.55911007    0.07840000
opls_700-82    C    0.27383999    0.62899001    0.44088993    0.07840000
opls_700-83    C    0.77383999    0.12899001    0.44088993    0.07840000
opls_145-84    C    0.76738017    0.63842009    0.73939993    -0.20080000
opls_145-85    C    0.26738017    0.13842009    0.73939993    -0.20080000
opls_145-86    C    0.23262020    0.63842009    0.26060007    -0.20070000
opls_145-87    C    0.73262020    0.13842009    0.26060007    -0.20080000
opls_145-88    C    0.81301996    0.62411998    0.73009042    -0.22630000
opls_145-89    C    0.31301996    0.12411998    0.73009042    -0.22620000
opls_145-90    C    0.18698002    0.62411998    0.26990011    -0.22630000
opls_145-91    C    0.68698002    0.12411998    0.26990011    -0.22630000
opls_145-92    C    0.03429012    0.40081994    0.68165021    -0.20080000
opls_145-93    C    0.53429012    0.90081994    0.68165021    -0.20080000
opls_145-94    C    0.96570987    0.40081994    0.31834033    -0.20080000
opls_145-95    C    0.46570987    0.90081994    0.31834033    -0.20080000
opls_145-96    C    0.03417020    0.37109994    0.68353104    -0.20030000
opls_145-97    C    0.53417020    0.87109994    0.68353104    -0.20030000
opls_145-98    C    0.96583017    0.37109994    0.31646896    -0.20030000
opls_145-99    C    0.46583017    0.87109994    0.31646896    -0.20030000
opls_916-100    C    1.00000000    0.50944992    0.50000000    0.13880000
opls_916-101    C    0.50000000    0.00944992    0.50000000    0.13880000
opls_700-102    C    1.00000000    0.44727010    0.50000000    0.05590000
opls_700-103    C    0.50000000    0.94727010    0.50000000    0.05590000
opls_700-104    C    1.00000000    0.41697004    0.50000000    0.05290000
opls_700-105    C    0.50000000    0.91697004    0.50000000    0.05290000
opls_700-106    C    1.00000000    0.35501995    0.50000000    0.05320000
opls_700-107    C    0.50000000    0.85501995    0.50000000    0.05320000
opls_700-108    C    0.68094998    0.64412991    0.55853045    0.07850000
opls_700-109    C    0.18094998    0.14412991    0.55853045    0.07850000
opls_700-110    C    0.31906003    0.64412991    0.44146955    0.07850000
opls_700-111    C    0.81906003    0.14412991    0.44146955    0.07850000
opls_700-112    C    0.50000000    0.82473995    0.50000000    0.05920000
opls_700-113    C    1.00000000    0.32473995    0.50000000    0.05920000
opls_520-114    N    0.54286003    0.71863991    0.51903068    -0.53930000
opls_520-115    N    0.04287004    0.21863991    0.51903068    -0.53960000
opls_520-116    N    0.45712996    0.71863991    0.48096932    -0.53980000
opls_520-117    N    0.95712996    0.21863991    0.48096932    -0.53980000
opls_520-118    N    0.50000000    0.67635006    0.50000000    -0.54380000
opls_520-119    N    1.00000000    0.17635006    0.50000000    -0.54370000
opls_239-120    N    1.00000000    0.53893004    0.50000000    -0.02000000
opls_239-121    N    0.50000000    0.03893004    0.50000000    -0.02000000
opls_146-122    H    0.91934002    0.52723990    0.83707054    0.20000000
opls_146-123    H    0.41934002    0.02723990    0.83707054    0.20000000
opls_146-124    H    0.08065998    0.52723990    0.16292946    0.20000000
opls_146-125    H    0.58065998    0.02723990    0.16292946    0.20000000
opls_146-126    H    0.84209019    0.55168001    0.84914097    0.19980000
opls_146-127    H    0.34209019    0.05168001    0.84914097    0.19990000
opls_146-128    H    0.15791018    0.55168001    0.15085903    0.19980000
opls_146-129    H    0.65791018    0.05168001    0.15085903    0.19980000
opls_146-130    H    0.90018014    0.61333003    0.23579915    0.19980000
opls_146-131    H    0.40018014    0.11333003    0.23579915    0.19980000
opls_146-132    H    0.09982023    0.61333003    0.76420085    0.19980000
opls_146-133    H    0.59982023    0.11333003    0.76420085    0.19980000
opls_146-134    H    0.97518008    0.58731993    0.20647951    0.20020000
opls_146-135    H    0.47518008    0.08731993    0.20647951    0.20020000
opls_146-136    H    0.02481992    0.58731993    0.79352049    0.20020000
opls_146-137    H    0.52481992    0.08731993    0.79352049    0.20020000
opls_146-138    H    0.92949989    0.50296007    0.28766981    0.19990000
opls_146-139    H    0.42949989    0.00296007    0.28766981    0.19990000
opls_146-140    H    0.07050011    0.50296007    0.71233019    0.20000000
opls_146-141    H    0.57050011    0.00296007    0.71233019    0.19990000
opls_146-142    H    0.92749992    0.45398991    0.30795910    0.19990000
opls_146-143    H    0.42749992    0.95398991    0.30795910    0.19990000
opls_146-144    H    0.07250006    0.45398991    0.69202907    0.19990000
opls_146-145    H    0.57250006    0.95398991    0.69202907    0.19990000
opls_146-146    H    0.77976001    0.57136009    0.24346915    0.19980000
opls_146-147    H    0.27976001    0.07136009    0.24346915    0.19980000
opls_146-148    H    0.22023999    0.57136009    0.75653085    0.19980000
opls_146-149    H    0.72023999    0.07136009    0.75653085    0.19980000
opls_146-150    H    0.70243988    0.59629009    0.25139938    0.19990000
opls_146-151    H    0.20243988    0.09629009    0.25139938    0.19990000
opls_146-152    H    0.29756012    0.59629009    0.74860062    0.19990000
opls_146-153    H    0.79756012    0.09629009    0.74860062    0.19990000
opls_146-154    H    0.76418026    0.65546994    0.88719995    0.19980000
opls_146-155    H    0.26418026    0.15546994    0.88719995    0.19980000
opls_146-156    H    0.23582011    0.65546994    0.11280005    0.19980000
opls_146-157    H    0.73581011    0.15546994    0.11280005    0.19980000
opls_146-158    H    0.84193024    0.63167008    0.86299996    0.19980000
opls_146-159    H    0.34193024    0.13167008    0.86299996    0.19980000
opls_146-160    H    0.15807013    0.63167008    0.13700004    0.19980000
opls_146-161    H    0.65807013    0.13167008    0.13700004    0.19980000
opls_146-162    H    0.06005007    0.41024009    0.82455061    0.19990000
opls_146-163    H    0.56005007    0.91024009    0.82455061    0.19990000
opls_146-164    H    0.93994993    0.41024009    0.17544939    0.19990000
opls_146-165    H    0.43994993    0.91024009    0.17544939    0.19990000
opls_146-166    H    0.05937995    0.36159997    0.83123879    0.19980000
opls_146-167    H    0.55937995    0.86159997    0.83123879    0.19980000
opls_146-168    H    0.94062005    0.36159997    0.16875884    0.19980000
opls_146-169    H    0.44062005    0.86159997    0.16875884    0.19980000
opls_526-170    H    0.63684999    0.70993011    0.44917977    0.19980000
opls_526-171    H    0.13684999    0.20993011    0.44917977    0.19980000
opls_526-172    H    0.36315001    0.70993011    0.55082023    0.19980000
opls_526-173    H    0.86315001    0.20993011    0.55082023    0.19990000
opls_526-174    H    0.42695998    0.76873007    0.31557941    0.19980000
opls_526-175    H    0.92695998    0.26873007    0.31557941    0.19980000
opls_526-176    H    0.57304002    0.76873007    0.68442059    0.19980000
opls_526-177    H    0.07304002    0.26873007    0.68442059    0.19980000
opls_526-178    H    0.44202015    0.63459003    0.36978040    0.19980000
opls_526-179    H    0.94202015    0.13459003    0.36978040    0.19980000
opls_526-180    H    0.55798022    0.63459003    0.63021960    0.19980000
opls_526-181    H    0.05798022    0.13459003    0.63021960    0.19980000
opls_146-182    H    0.71289999    0.68434994    0.47218029    0.19980000
opls_146-183    H    0.63408013    0.60898009    0.64405019    0.19980000
opls_146-184    H    0.21289999    0.18434994    0.47218029    0.19980000
opls_146-185    H    0.13408013    0.10898009    0.64405019    0.19980000
opls_146-186    H    0.28710001    0.68434994    0.52781971    0.19980000
opls_146-187    H    0.36591987    0.60898009    0.35594981    0.19990000
opls_146-188    H    0.78710001    0.18434994    0.52781971    0.19980000
opls_146-189    H    0.86591987    0.10898009    0.35594981    0.19980000
opls_146-190    H    0.42558990    0.81829993    0.33417005    0.19980000
opls_146-191    H    0.92558990    0.31829993    0.33417005    0.19980000
opls_146-192    H    0.57441010    0.81829993    0.66582995    0.19980000
opls_146-193    H    0.07441010    0.31829993    0.66582995    0.19980000
