#======================================================================
# Crystal Data Generated By AuToFF
#----------------------------------------------------------------------

data_AuToFF_phase_1

_cell_length_a                         30.1826
_cell_length_b                         52.2779
_cell_length_c                         3.6834
_cell_angle_alpha                      90.94
_cell_angle_beta                       111.63
_cell_angle_gamma                      90.01
_symmetry_space_group_name_H-M_alt     'P 1'
_symmetry_space_group_IT_number        1

loop_
_space_group_symop_operation_xyz
   'x, y, z'

loop_
   _atom_site_label
   _atom_site_type_symbol
   _atom_site_fract_x
   _atom_site_fract_y
   _atom_site_fract_z
   _atom_site_charge
opls_700-0    C    0.52374006    0.80950991    0.47742866    0.02740000
opls_700-1    C    0.54853997    0.83326991    0.49337976    0.02750000
opls_145-2    C    0.59660985    0.83225004    0.50917020    -0.23440000
opls_166-3    C    0.61860991    0.80895003    0.49743982    0.16060000
opls_166-4    C    0.59426017    0.78617008    0.47059081    0.16060000
opls_145-5    C    0.54758010    0.78613992    0.45950012    -0.23440000
opls_700-6    C    0.02308012    0.30923999    0.47791061    0.02740000
opls_700-7    C    0.04796015    0.33300998    0.49635032    0.02740000
opls_145-8    C    0.09604987    0.33200997    0.51325947    -0.23440000
opls_166-9    C    0.11802014    0.30872994    0.50012998    0.16060000
opls_166-10    C    0.09367007    0.28593003    0.47076899    0.16060000
opls_145-11    C    0.04691999    0.28589001    0.45860047    -0.23440000
opls_700-12    C    0.52247010    0.19081993    0.46542080    0.02750000
opls_700-13    C    0.54711989    0.16707993    0.47923087    0.02750000
opls_145-14    C    0.59512987    0.16810992    0.49390844    -0.23440000
opls_166-15    C    0.61731001    0.19137008    0.48558969    0.16100000
opls_166-16    C    0.59323983    0.21413995    0.46216983    0.16060000
opls_145-17    C    0.54652000    0.21415996    0.45079872    -0.23440000
opls_700-18    C    0.02362006    0.69056005    0.46679947    0.02750000
opls_700-19    C    0.04838002    0.66682993    0.48218975    0.02770000
opls_145-20    C    0.09643001    0.66788008    0.49791885    -0.23440000
opls_166-21    C    0.11856000    0.69114994    0.48889032    0.16060000
opls_166-22    C    0.09436002    0.71390003    0.46360107    0.16060000
opls_145-23    C    0.04758992    0.71390003    0.45114923    -0.23440000
opls_700-24    C    0.47630995    0.80966001    0.47640050    0.02740000
opls_700-25    C    0.45196990    0.83354005    0.45981849    0.02770000
opls_145-26    C    0.45198003    0.78650003    0.49418009    -0.23440000
opls_166-27    C    0.40527009    0.78679996    0.48237084    0.16060000
opls_166-28    C    0.38142012    0.80967007    0.45617028    0.16060000
opls_145-29    C    0.40394983    0.83280004    0.44545930    -0.23440000
opls_700-30    C    0.97562013    0.30941000    0.47607044    0.02740000
opls_700-31    C    0.95138998    0.33331007    0.46157104    0.02720000
opls_145-32    C    0.95114982    0.28625005    0.49125918    -0.23440000
opls_166-33    C    0.90444991    0.28657003    0.47990852    0.16060000
opls_166-34    C    0.88075979    0.30947995    0.45634845    0.16060000
opls_145-35    C    0.90339012    0.33259995    0.44757988    -0.23440000
opls_700-36    C    0.47500995    0.19063996    0.46380846    0.02740000
opls_700-37    C    0.45056994    0.16671994    0.44498027    0.02720000
opls_145-38    C    0.45077002    0.21382996    0.48355089    -0.23440000
opls_166-39    C    0.40404011    0.21349003    0.47172997    0.16060000
opls_166-40    C    0.38008980    0.19054994    0.44255883    0.16060000
opls_145-41    C    0.40248983    0.16740995    0.42911973    -0.23440000
opls_700-42    C    0.97614014    0.69036999    0.46457082    0.02750000
opls_700-43    C    0.95176984    0.66643005    0.44620997    0.02770000
opls_145-44    C    0.95181000    0.71354990    0.48353045    -0.23440000
opls_166-45    C    0.90506990    0.71318997    0.47146124    0.16060000
opls_166-46    C    0.88120011    0.69022000    0.44226090    0.16060000
opls_145-47    C    0.90365018    0.66709990    0.42930082    -0.23440000
opls_700-48    C    0.52485995    0.85703997    0.48877056    0.02680000
opls_700-49    C    0.47600007    0.85715999    0.46113875    0.02830000
opls_145-50    C    0.45289996    0.88130999    0.43853966    -0.23440000
opls_166-51    C    0.47710992    0.90425997    0.45209853    0.16060000
opls_166-52    C    0.52430002    0.90413998    0.48728966    0.16060000
opls_145-53    C    0.54825995    0.88109000    0.50638949    -0.23440000
opls_700-54    C    0.02436010    0.35677994    0.49312856    0.02770000
opls_166-55    C    0.02400990    0.40387001    0.49460946    0.16270000
opls_145-56    C    0.04789011    0.38082005    0.51290896    -0.23440000
opls_700-57    C    0.52343016    0.14329992    0.47449023    0.02720000
opls_700-58    C    0.47455989    0.14310009    0.44651959    0.02830000
opls_145-59    C    0.45150980    0.11887998    0.42510932    -0.23440000
opls_166-60    C    0.47580003    0.09597000    0.44042073    0.16060000
opls_166-61    C    0.52300011    0.09622002    0.47600034    0.16270000
opls_145-62    C    0.54689013    0.11930992    0.49356085    -0.23440000
opls_700-63    C    0.02476016    0.64302991    0.47817058    0.02750000
opls_166-64    C    0.02446011    0.59593001    0.48221019    0.16060000
opls_145-65    C    0.04829010    0.61904000    0.49878928    -0.23440000
opls_700-66    C    0.97548011    0.35693006    0.46474023    0.02680000
opls_145-67    C    0.95246016    0.38110007    0.44306123    -0.23440000
opls_166-68    C    0.97677997    0.40403998    0.45831130    0.16060000
opls_700-69    C    0.97587014    0.64281993    0.44937040    0.02680000
opls_145-70    C    0.95286978    0.61859995    0.42888897    -0.23440000
opls_166-71    C    0.97723996    0.59570004    0.44594125    0.16060000
opls_145-72    C    0.79024987    0.73555996    0.46778966    -0.29100000
opls_145-73    C    0.28939002    0.23599008    0.46804962    -0.27280000
opls_145-74    C    0.78957009    0.26407000    0.47147877    -0.27280000
opls_145-75    C    0.29049009    0.76414992    0.47406962    -0.27280000
opls_716-76    C    0.74804017    0.72260997    0.43848124    0.12760000
opls_145-77    C    0.24745995    0.22264004    0.43671117    -0.12580000
opls_145-78    C    0.74780992    0.27737991    0.44401053    -0.12580000
opls_145-79    C    0.24851009    0.77734993    0.44323941    -0.12580000
opls_145-80    C    0.75064993    0.77604004    0.50374899    -0.07800000
opls_145-81    C    0.25010004    0.27630008    0.50676921    -0.12580000
opls_145-82    C    0.74971020    0.22379996    0.49880097    -0.12580000
opls_145-83    C    0.25105004    0.72380990    0.50534965    -0.12580000
opls_145-84    C    0.79104009    0.76255007    0.50116982    -0.07800000
opls_145-85    C    0.29043008    0.26292004    0.50381033    -0.12580000
opls_145-86    C    0.79022985    0.23717995    0.49958961    -0.12580000
opls_145-87    C    0.29146991    0.73728004    0.50601854    -0.12580000
opls_716-88    C    0.70803981    0.73595005    0.43931954    0.12690000
opls_145-89    C    0.20711997    0.23603998    0.43967005    -0.12580000
opls_145-90    C    0.70728992    0.26399998    0.44328030    -0.12580000
opls_145-91    C    0.20807985    0.76388007    0.44264938    -0.12580000
opls_145-92    C    0.70848993    0.76287000    0.47338904    -0.29180000
opls_145-93    C    0.20814989    0.26296995    0.47527887    -0.27280000
opls_145-94    C    0.70794988    0.23710990    0.47135901    -0.27280000
opls_145-95    C    0.20904987    0.73700000    0.47421858    -0.27280000
opls_145-96    C    0.50039000    0.02747992    0.45652079    -0.29170000
opls_145-97    C    0.00157987    0.52720005    0.46568952    -0.29100000
opls_145-98    C    0.50094004    0.97281990    0.45994994    -0.29100000
opls_145-99    C    0.00127984    0.47253996    0.46937863    -0.29170000
opls_716-100    C    0.54156001    0.01364000    0.48287908    0.12690000
opls_716-101    C    0.04257995    0.51315003    0.49361927    0.12690000
opls_716-102    C    0.54180999    0.98694007    0.48441840    0.12690000
opls_716-103    C    0.04243004    0.48645004    0.49526959    0.12690000
opls_145-104    C    0.45949997    0.98651991    0.43270076    -0.07800000
opls_145-105    C    0.96001001    0.48644004    0.44096986    -0.07800000
opls_145-106    C    0.45921990    0.01351993    0.43096866    -0.07800000
opls_145-107    C    0.96015992    0.51342990    0.43905958    -0.07800000
opls_167-108    O    0.62158984    0.76602998    0.45711957    -0.37370000
opls_167-109    O    0.12109996    0.26583006    0.45643900    -0.37390000
opls_167-110    O    0.62088007    0.23422004    0.45241107    -0.37340000
opls_167-111    O    0.12192996    0.73399004    0.45317050    -0.37390000
opls_167-112    O    0.66302007    0.80467006    0.50452011    -0.37460000
opls_167-113    O    0.16248003    0.30457994    0.50827056    -0.37420000
opls_167-114    O    0.66178981    0.19552994    0.49392889    -0.37330000
opls_167-115    O    0.16306992    0.69534995    0.49803861    -0.37380000
opls_167-116    O    0.33687005    0.80569008    0.44788073    -0.37380000
opls_167-117    O    0.83621996    0.30553990    0.44835976    -0.37370000
opls_167-118    O    0.33555996    0.19446993    0.43483887    -0.37380000
opls_167-119    O    0.83668018    0.69410999    0.43440073    -0.37340000
opls_167-120    O    0.37746999    0.76685999    0.49418009    -0.37370000
opls_167-121    O    0.87652998    0.26665001    0.49012878    -0.37370000
opls_167-122    O    0.37632997    0.23342997    0.48629071    -0.37460000
opls_167-123    O    0.87722983    0.73309006    0.48579999    -0.37340000
opls_167-124    O    0.54090008    0.92821008    0.49637077    -0.37380000
opls_167-125    O    0.04078994    0.42788998    0.50532044    -0.37400000
opls_167-126    O    0.53977999    0.07221997    0.48759927    -0.37420000
opls_167-127    O    0.04124995    0.57191001    0.49540103    -0.37370000
opls_167-128    O    0.46079985    0.92841004    0.43643953    -0.37380000
opls_167-129    O    0.96059993    0.42822006    0.44345847    -0.37370000
opls_167-130    O    0.45964985    0.07174998    0.42711890    -0.37430000
opls_167-131    O    0.96107983    0.57150995    0.43369971    -0.37380000
MOF2_B_2-132    B    0.66615010    0.77722997    0.47812968    0.52700000
MOF2_B_2-133    B    0.16567011    0.27716008    0.47987055    0.52700000
MOF2_B_2-134    B    0.66528996    0.22292005    0.47241930    0.52700000
MOF2_B_2-135    B    0.16645008    0.72273998    0.47498094    0.52710000
MOF2_B_2-136    B    0.33313002    0.77831996    0.47227034    0.52700000
MOF2_B_2-137    B    0.83229981    0.27816998    0.47012931    0.52700000
MOF2_B_2-138    B    0.33195998    0.22188002    0.46323012    0.52710000
MOF2_B_2-139    B    0.83289007    0.72150005    0.46282995    0.52700000
MOF2_B_2-140    B    0.50093994    0.94436006    0.46403921    0.52700000
MOF2_B_2-141    B    0.00089997    0.44408990    0.47267050    0.52700000
MOF2_B_2-142    B    0.49994989    0.05593992    0.45683917    0.52700000
MOF2_B_2-143    B    0.00138001    0.55565990    0.46488920    0.52700000
opls_146-144    H    0.61707999    0.84796007    0.52600925    0.22530000
opls_146-145    H    0.53232003    0.76856007    0.43478921    0.22540000
opls_146-146    H    0.46689010    0.76889002    0.51901951    0.22530000
opls_146-147    H    0.38386979    0.84861002    0.42992882    0.22530000
opls_146-148    H    0.41840998    0.88326995    0.41235954    0.22530000
opls_146-149    H    0.58275997    0.88289993    0.53178973    0.22530000
opls_146-150    H    0.11659997    0.34770995    0.53197959    0.22530000
opls_146-151    H    0.03159008    0.26831009    0.43218960    0.22530000
opls_146-152    H    0.08241983    0.38262000    0.53941915    0.22580000
opls_146-153    H    0.61546989    0.15242006    0.50780029    0.22530000
opls_146-154    H    0.53137985    0.23169005    0.42843915    0.22520000
opls_146-155    H    0.46574987    0.23149009    0.51000850    0.22530000
opls_146-156    H    0.38228999    0.15157003    0.41079977    0.22530000
opls_146-157    H    0.41703008    0.11684997    0.39913074    0.22530000
opls_146-158    H    0.58141992    0.11756009    0.51982860    0.22530000
opls_146-159    H    0.11681995    0.65220989    0.51309006    0.22580000
opls_146-160    H    0.03237002    0.73142004    0.42737010    0.22530000
opls_146-161    H    0.08283991    0.61730007    0.52550977    0.22530000
opls_146-162    H    0.96596005    0.26862002    0.51401891    0.22530000
opls_146-163    H    0.88338997    0.34841999    0.43395091    0.22530000
opls_146-164    H    0.91795989    0.38308000    0.41629109    0.22530000
opls_146-165    H    0.96676982    0.73122001    0.50985953    0.22530000
opls_146-166    H    0.88345006    0.65125006    0.41068002    0.22550000
opls_146-167    H    0.91837981    0.61655989    0.40249855    0.22530000
opls_146-168    H    0.24595002    0.20310997    0.41129049    0.22500000
opls_146-169    H    0.74657002    0.29689006    0.42401105    0.22500000
opls_146-170    H    0.24704003    0.79683997    0.42059067    0.22500000
opls_146-171    H    0.82096002    0.77258000    0.52220914    0.22500000
opls_146-172    H    0.32045011    0.27298990    0.52678037    0.22500000
opls_146-173    H    0.82008989    0.22712008    0.51960077    0.22500000
opls_146-174    H    0.32152983    0.72729999    0.52902947    0.22500000
opls_146-175    H    0.17707996    0.22598993    0.41663867    0.22500000
opls_146-176    H    0.67740008    0.27404008    0.42304131    0.22500000
opls_146-177    H    0.17798998    0.77381991    0.41976113    0.22500000
opls_146-178    H    0.75224996    0.79554007    0.52768877    0.22500000
opls_146-179    H    0.25162992    0.29583991    0.53202924    0.22500000
opls_146-180    H    0.75097002    0.20429006    0.51852880    0.22510000
opls_146-181    H    0.25255996    0.70431993    0.52805973    0.22500000
opls_146-182    H    0.42881003    0.02286996    0.41375866    0.22500000
opls_146-183    H    0.92986004    0.52297006    0.42052933    0.22500000
opls_146-184    H    0.42930991    0.97694003    0.41670878    0.22500000
opls_146-185    H    0.92958997    0.47705998    0.42392927    0.22500000
opls_750-186    N    0.58387983    0.02318991    0.50941848    -0.38470000
opls_750-187    N    0.08507016    0.52250991    0.52140005    -0.38470000
opls_750-188    N    0.58428990    0.97764992    0.51195967    -0.38470000
opls_750-189    N    0.08482016    0.47696998    0.52399090    -0.38470000
opls_750-190    N    0.74013995    0.69729005    0.40631910    -0.38470000
opls_750-191    N    0.67182016    0.72004996    0.40567066    -0.38470000
opls_202-192    S    0.62471008    0.00053999    0.53809890    0.40200000
opls_202-193    S    0.12562012    0.49968000    0.55140072    0.40200000
opls_202-194    S    0.68485997    0.68898002    0.37335954    0.40200000
