#======================================================================
# Crystal Data Generated By AuToFF
#----------------------------------------------------------------------

data_AuToFF_phase_1

_cell_length_a                         18.7121
_cell_length_b                         18.7121
_cell_length_c                         6.8832
_cell_angle_alpha                      90.00
_cell_angle_beta                       90.00
_cell_angle_gamma                      120.00
_symmetry_space_group_name_H-M_alt     'P 1'
_symmetry_space_group_IT_number        1

loop_
_space_group_symop_operation_xyz
   'x, y, z'

loop_
   _atom_site_label
   _atom_site_type_symbol
   _atom_site_fract_x
   _atom_site_fract_y
   _atom_site_fract_z
   _atom_site_charge
opls_531-0    C    0.95049028    0.92407043    0.97379998    0.36290000
opls_700-1    C    0.89498010    0.08916980    0.97379998    0.00010000
opls_523-2    C    0.93420972    0.17577992    0.97379998    -0.11770000
opls_145-3    C    0.88794002    0.21567033    0.97379998    -0.15590000
opls_145-4    C    0.80106021    0.16943996    0.97379998    0.20740000
opls_145-5    C    0.76211980    0.08325008    0.97379998    -0.15170000
opls_523-6    C    0.80831003    0.04333005    0.97379998    -0.11560000
opls_142-7    C    0.77378980    0.28476997    0.97379998    0.07520000
opls_700-8    C    0.71293017    0.31307023    0.97379998    0.06380000
opls_145-9    C    0.62769022    0.25668013    0.97379998    -0.16070000
opls_531-10    C    0.07338021    0.05332996    0.97379998    0.36290000
opls_700-11    C    0.90828003    0.83273034    0.97379998    0.00010000
opls_523-12    C    0.82167018    0.78534046    0.97379998    -0.11850000
opls_145-13    C    0.78177035    0.69918020    0.97379998    -0.15580000
opls_145-14    C    0.82800012    0.65853016    0.97379998    0.20710000
opls_145-15    C    0.91420047    0.70579044    0.97379998    -0.15170000
opls_523-16    C    0.95412031    0.79189023    0.97379998    -0.11560000
opls_142-17    C    0.71268008    0.51593043    0.97379998    0.07520000
opls_700-18    C    0.68438008    0.42678038    0.97379998    0.06380000
opls_145-19    C    0.74076974    0.39791980    0.97379998    -0.16070000
opls_531-20    C    0.94412000    0.04695976    0.97379998    0.36290000
opls_700-21    C    0.16471980    0.10246989    0.97379998    0.00010000
opls_523-22    C    0.21211005    0.06323977    0.97379998    -0.11850000
opls_145-23    C    0.29827028    0.10951025    0.97379998    -0.15590000
opls_145-24    C    0.33892000    0.19639004    0.97379998    0.20740000
opls_145-25    C    0.29166037    0.23532025    0.97379998    -0.15170000
opls_523-26    C    0.20556015    0.18913987    0.97379998    -0.11560000
opls_142-27    C    0.48152008    0.22365976    0.97379998    0.07520000
opls_700-28    C    0.57066998    0.28452004    0.97379998    0.06380000
opls_145-29    C    0.59952999    0.36976023    0.97379998    -0.16040000
opls_531-30    C    0.62782992    0.24928001    0.50000000    0.36290000
opls_700-31    C    0.57232005    0.41438000    0.50000000    0.00140000
opls_523-32    C    0.61155020    0.50099012    0.50000000    -0.11850000
opls_145-33    C    0.56528009    0.54089040    0.50000000    -0.15590000
opls_145-34    C    0.47839975    0.49466003    0.50000000    0.20740000
opls_145-35    C    0.43946028    0.40846027    0.50000000    -0.15170000
opls_523-36    C    0.48565011    0.36855012    0.50000000    -0.11560000
opls_142-37    C    0.45112012    0.60998016    0.50000000    0.07520000
opls_700-38    C    0.39027012    0.63828042    0.50000000    0.06380000
opls_145-39    C    0.30502001    0.58189032    0.50000000    -0.16070000
opls_531-40    C    0.75071975    0.37855003    0.50000000    0.36290000
opls_700-41    C    0.58562020    0.15793991    0.50000000    0.00140000
opls_523-42    C    0.49900982    0.11055004    0.50000000    -0.11850000
opls_145-43    C    0.45910999    0.02438978    0.50000000    -0.15580000
opls_145-44    C    0.50534007    0.98374035    0.50000000    0.20740000
opls_145-45    C    0.59154011    0.03100002    0.50000000    -0.15170000
opls_523-46    C    0.63144979    0.11709981    0.50000000    -0.11550000
opls_142-47    C    0.39002025    0.84114001    0.50000000    0.07520000
opls_700-48    C    0.36171972    0.75198995    0.50000000    0.06380000
opls_145-49    C    0.41811013    0.72314048    0.50000000    -0.16070000
opls_531-50    C    0.62144980    0.37216996    0.50000000    0.36290000
opls_700-51    C    0.84206029    0.42768009    0.50000000    0.00010000
opls_523-52    C    0.88945000    0.38844997    0.50000000    -0.11840000
opls_145-53    C    0.97560992    0.43471983    0.50000000    -0.15580000
opls_145-54    C    0.01625995    0.52160023    0.50000000    0.20740000
opls_145-55    C    0.96899991    0.56054032    0.50000000    -0.15170000
opls_523-56    C    0.88290010    0.51435007    0.50000000    -0.11560000
opls_142-57    C    0.15886016    0.54887983    0.50000000    0.07520000
opls_700-58    C    0.24800993    0.60973024    0.50000000    0.06380000
opls_145-59    C    0.27685992    0.69498030    0.50000000    -0.16070000
opls_520-60    N    0.03419014    0.96958004    0.97379998    -0.44500000
opls_750-61    N    0.74974000    0.20648991    0.97379998    -0.31520000
opls_520-62    N    0.02787012    0.09152029    0.97379998    -0.44470000
opls_750-63    N    0.79096020    0.57016010    0.97379998    -0.31520000
opls_520-64    N    0.90592039    0.96326044    0.97379998    -0.44490000
opls_750-65    N    0.42728013    0.24771014    0.97379998    -0.31510000
opls_520-66    N    0.71153009    0.29479024    0.50000000    -0.44490000
opls_750-67    N    0.42707995    0.53170011    0.50000000    -0.31510000
opls_520-68    N    0.70521019    0.41674036    0.50000000    -0.44490000
opls_750-69    N    0.46830028    0.89538017    0.50000000    -0.31520000
opls_520-70    N    0.58326003    0.28847002    0.50000000    -0.44480000
opls_750-71    N    0.10462008    0.57292034    0.50000000    -0.31520000
opls_526-72    H    0.00085974    0.21302981    0.97379998    0.12680000
opls_146-73    H    0.92106021    0.28223991    0.97379998    0.12510000
opls_146-74    H    0.69540016    0.04675983    0.97379998    0.12450000
opls_526-75    H    0.77595025    0.97654017    0.97379998    0.12650000
opls_144-76    H    0.83849006    0.33088000    0.97379998    0.12480000
opls_146-77    H    0.60542995    0.19094979    0.97379998    0.12350000
opls_526-78    H    0.78441992    0.81475025    0.97379998    0.12470000
opls_146-79    H    0.71521028    0.66573034    0.97379998    0.13390000
opls_146-80    H    0.95068005    0.67555006    0.97379998    0.12450000
opls_526-81    H    0.02091008    0.82632003    0.97379998    0.12650000
opls_144-82    H    0.66657030    0.53453007    0.97379998    0.12310000
opls_146-83    H    0.80650000    0.44139980    0.97379998    0.12350000
opls_526-84    H    0.18270014    0.99658010    0.97379998    0.12460000
opls_146-85    H    0.33172000    0.07638991    0.97379998    0.12510000
opls_146-86    H    0.32190013    0.30205027    0.97379998    0.12620000
opls_526-87    H    0.17113016    0.22149996    0.97379998    0.12650000
opls_144-88    H    0.46292011    0.15895996    0.97379998    0.12480000
opls_146-89    H    0.55605008    0.39200995    0.97379998    0.12350000
opls_526-90    H    0.67820022    0.53824000    0.50000000    0.12680000
opls_146-91    H    0.59840015    0.60745010    0.50000000    0.13390000
opls_146-92    H    0.37273970    0.37197990    0.50000000    0.12460000
opls_526-93    H    0.45328005    0.30175037    0.50000000    0.12460000
opls_144-94    H    0.51583001    0.65609019    0.50000000    0.12310000
opls_146-95    H    0.28276990    0.51615999    0.50000000    0.12350000
opls_526-96    H    0.46176010    0.13995983    0.50000000    0.12460000
opls_146-97    H    0.39254992    0.99093992    0.50000000    0.13390000
opls_146-98    H    0.62802000    0.00076025    0.50000000    0.12450000
opls_526-99    H    0.69825003    0.15153022    0.50000000    0.12460000
opls_144-100    H    0.34391025    0.85974027    0.50000000    0.12310000
opls_146-101    H    0.48383995    0.76661000    0.50000000    0.12350000
opls_526-102    H    0.86004021    0.32180017    0.50000000    0.12690000
opls_146-103    H    0.00905995    0.40160011    0.50000000    0.12510000
opls_146-104    H    0.99923977    0.62725985    0.50000000    0.12450000
opls_526-105    H    0.84847023    0.54672002    0.50000000    0.12460000
opls_144-106    H    0.14026006    0.48417016    0.50000000    0.12310000
opls_146-107    H    0.23339015    0.71723002    0.50000000    0.12130000
