#======================================================================
# Crystal Data Generated By AuToFF
#----------------------------------------------------------------------

data_AuToFF_phase_1

_cell_length_a                         28.7523
_cell_length_b                         31.1789
_cell_length_c                         4.3296
_cell_angle_alpha                      90.00
_cell_angle_beta                       63.21
_cell_angle_gamma                      90.00
_symmetry_space_group_name_H-M_alt     'P 1'
_symmetry_space_group_IT_number        1

loop_
_space_group_symop_operation_xyz
   'x, y, z'

loop_
   _atom_site_label
   _atom_site_type_symbol
   _atom_site_fract_x
   _atom_site_fract_y
   _atom_site_fract_z
   _atom_site_charge
opls_700-0    C    0.08110999    0.88072020    0.70997030    0.06260000
opls_592-1    C    0.09456992    0.92391004    0.73740194    -0.13580000
opls_593-2    C    0.06781992    0.95828994    0.67952174    -0.15710000
opls_594-3    C    0.02875995    0.94931011    0.58320051    0.10680000
opls_700-4    C    0.01483988    0.90746019    0.56471094    0.00360000
opls_590-5    C    0.03987996    0.87265017    0.62518112    -0.17280000
opls_700-6    C    0.03123016    0.09075010    0.40583925    0.00360000
opls_594-7    C    0.04432981    0.04788989    0.35320113    0.10310000
opls_590-8    C    0.06836992    0.12328018    0.29916065    -0.17860000
opls_700-9    C    0.12149984    0.11163002    0.12962110    0.06560000
opls_592-10    C    0.13498980    0.06781010    0.05265105    -0.13720000
opls_593-11    C    0.09648982    0.03576012    0.16246041    -0.17450000
opls_700-12    C    0.10878967    0.84451010    0.78046149    0.06820000
opls_700-13    C    0.16236993    0.14439992    0.06473940    0.06330000
opls_145-14    C    0.15692989    0.18654023    0.96970152    -0.13420000
opls_145-15    C    0.19219984    0.21847000    0.95229089    -0.17290000
opls_145-16    C    0.23388004    0.20886987    0.02409907    0.18560000
opls_145-17    C    0.24035012    0.16648013    0.10910041    -0.17400000
opls_145-18    C    0.20497003    0.13465008    0.12896908    -0.12930000
opls_145-19    C    0.08225994    0.80631004    0.93336145    -0.13310000
opls_145-20    C    0.10803984    0.77259008    0.00348006    -0.12160000
opls_700-21    C    0.16077988    0.77625999    0.92438058    0.05720000
opls_145-22    C    0.18750989    0.81427018    0.77210159    -0.12930000
opls_145-23    C    0.16185989    0.84790997    0.69934125    -0.13280000
opls_142-24    C    0.31234003    0.23951988    0.01233932    0.06850000
opls_700-25    C    0.89020986    0.11979999    0.86004999    0.06620000
opls_592-26    C    0.87220978    0.07703018    0.94602161    -0.13690000
opls_593-27    C    0.90719969    0.04240006    0.84277132    -0.17440000
opls_594-28    C    0.96043998    0.05083999    0.64978990    0.10280000
opls_700-29    C    0.97796993    0.09263007    0.58763015    0.00360000
opls_590-30    C    0.94433998    0.12768006    0.68760996    -0.17510000
opls_700-31    C    0.97419989    0.90907010    0.48118958    0.00360000
opls_594-32    C    0.96532013    0.95183011    0.44743951    0.10670000
opls_590-33    C    0.94506995    0.87644016    0.43336145    -0.17940000
opls_700-34    C    0.90502981    0.88779997    0.34467047    0.06130000
opls_592-35    C    0.89684979    0.93186994    0.30122022    -0.13710000
opls_593-36    C    0.92755989    0.96390013    0.34729927    -0.18650000
opls_700-37    C    0.85280989    0.15543024    0.92064178    0.06320000
opls_700-38    C    0.87311010    0.85408992    0.28619000    0.06640000
opls_145-39    C    0.89464005    0.81371006    0.15113018    -0.13310000
opls_145-40    C    0.86488000    0.78242987    0.09129908    -0.17020000
opls_145-41    C    0.81341977    0.79084997    0.15914078    0.18540000
opls_145-42    C    0.79140998    0.83090009    0.29718128    -0.17360000
opls_145-43    C    0.82091009    0.86206991    0.36115998    -0.13280000
opls_145-44    C    0.86238997    0.19662004    0.01149065    -0.13420000
opls_145-45    C    0.83006997    0.23103994    0.02941100    -0.12810000
opls_700-46    C    0.78750983    0.22490025    0.95850065    0.05960000
opls_145-47    C    0.77668976    0.18346015    0.88094068    -0.12150000
opls_145-48    C    0.80909981    0.14916022    0.86095040    -0.12790000
opls_142-49    C    0.74303982    0.76223001    0.05538076    0.06800000
opls_700-50    C    0.41889019    0.38071013    0.29008921    0.06260000
opls_592-51    C    0.40541986    0.42391012    0.26262135    -0.15010000
opls_593-52    C    0.43218005    0.45829019    0.32048084    -0.17170000
opls_594-53    C    0.47122982    0.44931011    0.41680984    0.10670000
opls_700-54    C    0.48515994    0.40746015    0.43532011    0.00360000
opls_590-55    C    0.46011976    0.37265001    0.37488098    -0.17280000
opls_700-56    C    0.46876990    0.59075021    0.59405984    0.00360000
opls_594-57    C    0.45566971    0.54788995    0.64671089    0.10310000
opls_590-58    C    0.43162972    0.62328016    0.70075138    -0.18160000
opls_700-59    C    0.37850996    0.61162995    0.87031163    0.06590000
opls_592-60    C    0.36501964    0.56780021    0.94728167    -0.13720000
opls_593-61    C    0.40350978    0.53576004    0.83746197    -0.17510000
opls_700-62    C    0.39120990    0.34451004    0.21962131    0.06810000
opls_700-63    C    0.33762969    0.64440020    0.93521144    0.06360000
opls_145-64    C    0.34308020    0.68653997    0.03023897    -0.13410000
opls_145-65    C    0.30780999    0.71846010    0.04767030    -0.17300000
opls_145-66    C    0.26613002    0.70887001    0.97589058    0.18570000
opls_145-67    C    0.25964982    0.66647998    0.89089959    -0.17400000
opls_145-68    C    0.29502982    0.63464999    0.87102058    -0.12810000
opls_145-69    C    0.41774006    0.30631004    0.06677051    -0.13280000
opls_145-70    C    0.39195973    0.27259015    0.99664155    -0.12160000
opls_700-71    C    0.33922003    0.27626014    0.07570998    0.05430000
opls_145-72    C    0.31248993    0.31426002    0.22796051    -0.12920000
opls_145-73    C    0.33814001    0.34790996    0.30072085    -0.13280000
opls_142-74    C    0.18765982    0.73952011    0.98775124    0.06860000
opls_700-75    C    0.60980006    0.61979987    0.13986980    0.06620000
opls_592-76    C    0.62779994    0.57704004    0.05391112    -0.13690000
opls_593-77    C    0.59279986    0.54240986    0.15715106    -0.17480000
opls_594-78    C    0.53956004    0.55083999    0.35011954    0.10290000
opls_700-79    C    0.52203969    0.59263015    0.41227153    0.00360000
opls_590-80    C    0.55566015    0.62768014    0.31228913    -0.17510000
opls_700-81    C    0.52579992    0.40907006    0.51884146    0.00360000
opls_594-82    C    0.53466998    0.45183006    0.55256049    0.10670000
opls_590-83    C    0.55493010    0.37644016    0.56667995    -0.17900000
opls_700-84    C    0.59496981    0.38780019    0.65536058    0.06130000
opls_592-85    C    0.60314986    0.43188023    0.69877978    -0.13710000
opls_593-86    C    0.57243987    0.46390008    0.65269038    -0.18650000
opls_700-87    C    0.64718983    0.65542999    0.07930130    0.06320000
opls_700-88    C    0.62687969    0.35408997    0.71385140    0.06640000
opls_145-89    C    0.60535993    0.31371008    0.84895003    -0.13280000
opls_145-90    C    0.63510978    0.28243002    0.90879148    -0.17210000
opls_145-91    C    0.68656980    0.29086009    0.84090062    0.18550000
opls_145-92    C    0.70858991    0.33090004    0.70283165    -0.17390000
opls_145-93    C    0.67908974    0.36207013    0.63886071    -0.13210000
opls_145-94    C    0.63760995    0.69661994    0.98847053    -0.13420000
opls_145-95    C    0.66992965    0.73104018    0.97059158    -0.12930000
opls_700-96    C    0.71249001    0.72491004    0.04150970    0.05970000
opls_145-97    C    0.72331006    0.68346011    0.11904897    -0.12360000
opls_145-98    C    0.69089976    0.64916011    0.13902113    -0.12790000
opls_142-99    C    0.75696006    0.26223012    0.94465029    0.06800000
opls_542-100    N    0.50139990    0.47720007    0.48932955    0.00620000
opls_750-101    N    0.26534995    0.24342990    0.04510101    -0.36130000
opls_542-102    N    0.49900002    0.52271990    0.49522107    0.00570000
opls_750-103    N    0.78356978    0.75704008    0.10991027    -0.36140000
opls_542-104    N    0.99860012    0.97720018    0.51064975    0.00620000
opls_750-105    N    0.23465009    0.74343012    0.95491969    -0.36140000
opls_542-106    N    0.00100002    0.02272013    0.50471166    0.00570000
opls_750-107    N    0.71642980    0.25703995    0.89012078    -0.36130000
opls_601-108    H    0.12447987    0.93113019    0.81605121    0.11700000
opls_602-109    H    0.07706006    0.99078018    0.71300014    0.09400000
opls_599-110    H    0.02780968    0.84041993    0.60396183    0.11260000
opls_599-111    H    0.05639997    0.15629000    0.36547060    0.11670000
opls_601-112    H    0.17544009    0.05831013    0.91381104    0.11420000
opls_602-113    H    0.10804992    0.00269986    0.10453106    0.11330000
opls_146-114    H    0.12493006    0.19498012    0.91431041    0.11250000
opls_146-115    H    0.18652985    0.25099999    0.88843121    0.11240000
opls_146-116    H    0.27080997    0.15822996    0.17989951    0.11660000
opls_146-117    H    0.20948012    0.10288997    0.21307000    0.11250000
opls_146-118    H    0.04116987    0.80267001    0.00701186    0.11690000
opls_146-119    H    0.08664009    0.74357991    0.12112925    0.11080000
opls_146-120    H    0.22847990    0.81776005    0.70355095    0.11240000
opls_146-121    H    0.18396991    0.87629992    0.57424034    0.11690000
opls_144-122    H    0.33244990    0.20903007    0.94092960    0.09270000
opls_601-123    H    0.83091968    0.07038009    0.08739211    0.11450000
opls_602-124    H    0.89218006    0.01027001    0.90817050    0.08920000
opls_599-125    H    0.95966999    0.15979991    0.61489102    0.11670000
opls_599-126    H    0.95316012    0.84340018    0.46718915    0.11260000
opls_601-127    H    0.86799996    0.94150000    0.21927977    0.11490000
opls_602-128    H    0.92224004    0.99697998    0.30252944    0.10410000
opls_146-129    H    0.93487014    0.80641988    0.08366883    0.11380000
opls_146-130    H    0.88215007    0.75155004    0.98862060    0.11250000
opls_146-131    H    0.75104972    0.83777010    0.36636066    0.11780000
opls_146-132    H    0.80233972    0.89211990    0.47576121    0.11380000
opls_146-133    H    0.89522007    0.20231986    0.06482996    0.11240000
opls_146-134    H    0.83888998    0.26265013    0.09262125    0.10980000
opls_146-135    H    0.74438988    0.17777001    0.82206951    0.11250000
opls_146-136    H    0.80120983    0.11810023    0.78298162    0.11250000
opls_144-137    H    0.73054996    0.79406016    0.02532032    0.10330000
opls_601-138    H    0.37552013    0.43112986    0.18395914    0.11800000
opls_602-139    H    0.42292994    0.49077017    0.28697139    0.09400000
opls_599-140    H    0.47218991    0.34042000    0.39613132    0.11260000
opls_599-141    H    0.44359977    0.65628998    0.63443108    0.11670000
opls_601-142    H    0.32455967    0.55830014    0.08613204    0.11450000
opls_602-143    H    0.39193984    0.50269995    0.89541202    0.11330000
opls_146-144    H    0.37507998    0.69498008    0.08560939    0.11450000
opls_146-145    H    0.31348009    0.75100008    0.11151963    0.11410000
opls_146-146    H    0.22919004    0.65823021    0.82010049    0.11660000
opls_146-147    H    0.29051995    0.60289022    0.78694034    0.11240000
opls_146-148    H    0.45882005    0.30267014    0.99315115    0.11380000
opls_146-149    H    0.41335987    0.24357999    0.87901047    0.10950000
opls_146-150    H    0.27151991    0.31775018    0.29648010    0.11240000
opls_146-151    H    0.31602979    0.37630007    0.42580106    0.11640000
opls_144-152    H    0.16753989    0.70903022    0.05919977    0.10820000
opls_601-153    H    0.66909008    0.57039011    0.91255097    0.11450000
opls_602-154    H    0.60781990    0.51027017    0.09176999    0.09900000
opls_599-155    H    0.54032971    0.65979988    0.38502101    0.11670000
opls_599-156    H    0.54683999    0.34340019    0.53288071    0.11260000
opls_601-157    H    0.63199982    0.44150999    0.78069177    0.11660000
opls_602-158    H    0.57775966    0.49698003    0.69743174    0.10400000
opls_146-159    H    0.56513006    0.30642021    0.91643984    0.11370000
opls_146-160    H    0.61785000    0.25155014    0.01151135    0.11450000
opls_146-161    H    0.74894979    0.33777009    0.63362122    0.11730000
opls_146-162    H    0.69766007    0.39213002    0.52422067    0.11390000
opls_146-163    H    0.60477981    0.70233008    0.93511053    0.11280000
opls_146-164    H    0.66110974    0.76265993    0.90740204    0.10960000
opls_146-165    H    0.75560997    0.67777011    0.17794084    0.11240000
opls_146-166    H    0.69878999    0.61809990    0.21697957    0.11250000
opls_144-167    H    0.76943993    0.29406001    0.97473143    0.10820000
