#======================================================================
# Crystal Data Generated By AuToFF
#----------------------------------------------------------------------

data_AuToFF_phase_1

_cell_length_a                         36.9244
_cell_length_b                         36.9244
_cell_length_c                         3.5369
_cell_angle_alpha                      90.00
_cell_angle_beta                       90.00
_cell_angle_gamma                      120.00
_symmetry_space_group_name_H-M_alt     'P 1'
_symmetry_space_group_IT_number        1

loop_
_space_group_symop_operation_xyz
   'x, y, z'

loop_
   _atom_site_label
   _atom_site_type_symbol
   _atom_site_fract_x
   _atom_site_fract_y
   _atom_site_fract_z
   _atom_site_charge
opls_145-0    C    0.29049992    0.64384987    0.50618055    0.09400000
opls_145-1    C    0.31354980    0.62431987    0.50588934    -0.15630000
opls_145-2    C    0.24508002    0.61965002    0.51192004    0.09110000
opls_145-3    C    0.36586004    0.58724002    0.35373067    -0.13650000
opls_145-4    C    0.38805003    0.56718996    0.35965959    -0.15850000
opls_145-5    C    0.42581993    0.58506004    0.53039950    0.26190000
opls_145-6    C    0.44065990    0.62324005    0.69031072    -0.13820000
opls_145-7    C    0.41828999    0.64302992    0.67975911    -0.15350000
opls_142-8    C    0.44283005    0.53064986    0.39385903    0.04210000
opls_145-9    C    0.47396998    0.51717006    0.45963980    0.00150000
opls_145-10    C    0.46440000    0.47778983    0.34827108    -0.06780000
opls_145-11    C    0.49177991    0.46379998    0.37273036    -0.07380000
opls_145-12    C    0.70956989    0.35584992    0.52402104    0.10300000
opls_145-13    C    0.68678007    0.37566011    0.52393904    -0.15700000
opls_145-14    C    0.75501982    0.37971985    0.52490882    0.09100000
opls_145-15    C    0.63679008    0.41506004    0.39418135    -0.13670000
opls_145-16    C    0.61496003    0.43546003    0.39400888    -0.13830000
opls_145-17    C    0.57522006    0.41621992    0.52728095    0.26330000
opls_145-18    C    0.55814008    0.37639000    0.65658062    -0.13830000
opls_145-19    C    0.58044005    0.35649005    0.65656083    -0.13650000
opls_142-20    C    0.56450992    0.47615993    0.49325115    0.03440000
opls_145-21    C    0.53166008    0.48825001    0.50581017    0.00510000
opls_166-22    C    0.54087004    0.52698009    0.61510079    0.16950000
opls_166-23    C    0.51285011    0.54070006    0.59767028    0.17000000
opls_716-24    C    0.57204013    0.59136010    0.83101869    0.39330000
opls_145-25    C    0.35614989    0.64664997    0.50618055    0.09400000
opls_145-26    C    0.37568007    0.68922995    0.50588934    -0.15630000
opls_145-27    C    0.38034997    0.62543003    0.51192004    0.09110000
opls_145-28    C    0.41276011    0.77862007    0.35373067    -0.13650000
opls_145-29    C    0.43280996    0.82085981    0.35965959    -0.15850000
opls_145-30    C    0.41494000    0.84076007    0.53039950    0.26190000
opls_145-31    C    0.37676007    0.81741989    0.69031072    -0.13820000
opls_145-32    C    0.35697000    0.77525989    0.67975911    -0.15350000
opls_142-33    C    0.46935009    0.91218004    0.39385903    0.04210000
opls_145-34    C    0.48283008    0.95679990    0.45963980    0.00150000
opls_145-35    C    0.52220998    0.98660995    0.34827108    -0.06780000
opls_145-36    C    0.53619998    0.02798001    0.37273036    -0.07380000
opls_145-37    C    0.64414991    0.35371998    0.52402104    0.10300000
opls_145-38    C    0.62433999    0.31111999    0.52393904    -0.15700000
opls_145-39    C    0.62027984    0.37529986    0.52490882    0.09100000
opls_145-40    C    0.58493980    0.22172986    0.39418135    -0.13670000
opls_145-41    C    0.56454018    0.17950013    0.39400888    -0.13830000
opls_145-42    C    0.58378013    0.15900007    0.52728095    0.26340000
opls_145-43    C    0.62360991    0.18174984    0.65658062    -0.13820000
opls_145-44    C    0.64350991    0.22394986    0.65656083    -0.13650000
opls_142-45    C    0.52383995    0.08835002    0.49325115    0.03440000
opls_145-46    C    0.51175003    0.04340994    0.50581017    0.00510000
opls_166-47    C    0.47302005    0.01389009    0.61510079    0.16950000
opls_166-48    C    0.45930006    0.97215008    0.59767028    0.17010000
opls_716-49    C    0.40864001    0.98067983    0.83101869    0.39340000
opls_145-50    C    0.35335004    0.70949984    0.50618055    0.09400000
opls_145-51    C    0.31076997    0.68644987    0.50588934    -0.15630000
opls_145-52    C    0.37457002    0.75491995    0.51192004    0.09110000
opls_145-53    C    0.22137984    0.63413991    0.35373067    -0.13650000
opls_145-54    C    0.17913986    0.61194991    0.35965959    -0.15850000
opls_145-55    C    0.15924006    0.57417988    0.53039950    0.26190000
opls_145-56    C    0.18258003    0.55934006    0.69031072    -0.13820000
opls_145-57    C    0.22473985    0.58170987    0.67975911    -0.15350000
opls_142-58    C    0.08782013    0.55717010    0.39385903    0.04220000
opls_145-59    C    0.04319994    0.52603005    0.45963980    0.00150000
opls_145-60    C    0.01338986    0.53559991    0.34827108    -0.06770000
opls_145-61    C    0.97202011    0.50822001    0.37273036    -0.07380000
opls_145-62    C    0.64627993    0.29043011    0.52402104    0.10300000
opls_145-63    C    0.68887994    0.31321990    0.52393904    -0.15700000
opls_145-64    C    0.62469991    0.24497998    0.52490882    0.09100000
opls_145-65    C    0.77827013    0.36321010    0.39418135    -0.13670000
opls_145-66    C    0.82049979    0.38503984    0.39400888    -0.13830000
opls_145-67    C    0.84100008    0.42478001    0.52728095    0.26340000
opls_145-68    C    0.81824985    0.44185985    0.65658062    -0.13830000
opls_145-69    C    0.77605004    0.41956008    0.65656083    -0.13650000
opls_142-70    C    0.91165014    0.43549005    0.49325115    0.03440000
opls_145-71    C    0.95659016    0.46834005    0.50581017    0.00510000
opls_166-72    C    0.98611006    0.45913013    0.61510079    0.16960000
opls_166-73    C    0.02784983    0.48714986    0.59767028    0.17000000
opls_716-74    C    0.01932013    0.42796006    0.83101869    0.39330000
opls_750-75    N    0.45011997    0.56659986    0.55200034    -0.24010000
opls_750-76    N    0.55067999    0.43459004    0.52561000    -0.28170000
opls_750-77    N    0.43339988    0.88351987    0.55200034    -0.24010000
opls_750-78    N    0.56540998    0.11608986    0.52561000    -0.28180000
opls_750-79    N    0.11647999    0.54987996    0.55200034    -0.24010000
opls_750-80    N    0.88391003    0.44932010    0.52561000    -0.28170000
opls_180-81    O    0.53108997    0.58061004    0.72339054    -0.14350000
opls_180-82    O    0.57720007    0.55715008    0.75300122    -0.14580000
opls_180-83    O    0.41938985    0.95047982    0.72339054    -0.14350000
opls_180-84    O    0.44284993    0.02005005    0.75300122    -0.14580000
opls_180-85    O    0.04952002    0.46890983    0.72339054    -0.14350000
opls_180-86    O    0.97995000    0.42279987    0.75300122    -0.14580000
opls_146-87    H    0.29722010    0.58871011    0.50540021    0.05000000
opls_146-88    H    0.33384000    0.57200992    0.21229042    0.05000000
opls_146-89    H    0.37489000    0.53519994    0.22058017    0.05000000
opls_146-90    H    0.47243996    0.63907995    0.83630015    0.05000000
opls_146-91    H    0.43132015    0.67524010    0.81409992    0.05000000
opls_146-92    H    0.43210989    0.45529993    0.22885860    0.05000000
opls_146-93    H    0.48201014    0.43056002    0.28089004    0.05000000
opls_146-94    H    0.70333983    0.41127988    0.52380050    0.05000000
opls_146-95    H    0.67020988    0.43119984    0.28210863    0.05000000
opls_146-96    H    0.62995999    0.46883009    0.28185982    0.05010000
opls_146-97    H    0.52464003    0.35938991    0.76669965    0.05000000
opls_146-98    H    0.56585009    0.32316002    0.76878905    0.05000000
opls_144-99    H    0.41352003    0.51161990    0.21616953    0.02950000
opls_144-100    H    0.59935008    0.49924994    0.45909129    0.02950000
opls_715-101    H    0.59391987    0.62350993    0.95650994    0.02340000
opls_146-102    H    0.41128996    0.70851009    0.50540021    0.05000000
opls_146-103    H    0.42799001    0.76182981    0.21229042    0.05000000
opls_146-104    H    0.46479993    0.83969995    0.22058017    0.05000000
opls_146-105    H    0.36092005    0.83335986    0.83630015    0.05000000
opls_146-106    H    0.32475997    0.75607983    0.81409992    0.05000000
opls_146-107    H    0.54469999    0.97680992    0.22885860    0.05000000
opls_146-108    H    0.56944011    0.05145998    0.28089004    0.05000000
opls_146-109    H    0.58871993    0.29206000    0.52380050    0.05000000
opls_146-110    H    0.56879984    0.23899983    0.28210863    0.05000000
opls_146-111    H    0.53117002    0.16113001    0.28185982    0.05000000
opls_146-112    H    0.64061015    0.16524009    0.76669965    0.05000000
opls_146-113    H    0.67683998    0.24268993    0.76878905    0.05000000
opls_144-114    H    0.48837999    0.90189999    0.21616953    0.02950000
opls_144-115    H    0.50075000    0.10009985    0.45909129    0.02950000
opls_715-116    H    0.37648995    0.97041010    0.95650994    0.02340000
opls_146-117    H    0.29149010    0.70278011    0.50540021    0.05000000
opls_146-118    H    0.23817011    0.66615996    0.21229042    0.05000000
opls_146-119    H    0.16030018    0.62511012    0.22058017    0.04940000
opls_146-120    H    0.16663983    0.52755987    0.83630015    0.05010000
opls_146-121    H    0.24392015    0.56868007    0.81409992    0.05000000
opls_146-122    H    0.02318997    0.56788983    0.22885860    0.05000000
opls_146-123    H    0.94854013    0.51799001    0.28089004    0.04940000
opls_146-124    H    0.70793996    0.29666012    0.52380050    0.05000000
opls_146-125    H    0.76100002    0.32979001    0.28210863    0.05000000
opls_146-126    H    0.83886998    0.37003991    0.28185982    0.05000000
opls_146-127    H    0.83475998    0.47536000    0.76669965    0.05000000
opls_146-128    H    0.75730993    0.43415004    0.76878905    0.05000000
opls_144-129    H    0.09809998    0.58648011    0.21616953    0.02950000
opls_144-130    H    0.89990003    0.40064990    0.45909129    0.02950000
opls_715-131    H    0.02958991    0.40607997    0.95650994    0.02340000
