#======================================================================
# Crystal Data Generated By AuToFF
#----------------------------------------------------------------------

data_AuToFF_phase_1

_cell_length_a                         17.3329
_cell_length_b                         17.3329
_cell_length_c                         4.6876
_cell_angle_alpha                      90.00
_cell_angle_beta                       90.00
_cell_angle_gamma                      120.00
_symmetry_space_group_name_H-M_alt     'P 1'
_symmetry_space_group_IT_number        1

loop_
_space_group_symop_operation_xyz
   'x, y, z'

loop_
   _atom_site_label
   _atom_site_type_symbol
   _atom_site_fract_x
   _atom_site_fract_y
   _atom_site_fract_z
   _atom_site_charge
opls_145-0    C    0.70069979    0.26969974    0.02885912    -0.06780000
opls_700-1    C    0.76497981    0.36749978    0.02851992    0.07790000
opls_142-2    C    0.59807013    0.46587008    0.02994923    0.04130000
opls_145-3    C    0.46747999    0.49740019    0.98864024    0.21420000
opls_145-4    C    0.50859990    0.58417012    0.14994027    -0.11160000
opls_145-5    C    0.46472019    0.63925006    0.14844910    -0.11240000
opls_916-6    C    0.37885023    0.60920022    0.98830105    0.20530000
opls_145-7    C    0.33793011    0.52161021    0.83119080    -0.11240000
opls_145-8    C    0.38150977    0.46624981    0.83308089    -0.11260000
opls_145-9    C    0.73030036    0.43100036    0.02885912    -0.06780000
opls_700-10    C    0.63250024    0.39748034    0.02851992    0.07790000
opls_142-11    C    0.53413021    0.13220010    0.02994923    0.04130000
opls_145-12    C    0.50260028    0.97008007    0.98864024    0.21420000
opls_145-13    C    0.41582983    0.92443006    0.14994027    -0.11160000
opls_145-14    C    0.36075014    0.82547018    0.14844910    -0.11240000
opls_916-15    C    0.39079982    0.76965011    0.98830105    0.20530000
opls_145-16    C    0.47839005    0.81632006    0.83119080    -0.11240000
opls_145-17    C    0.53374996    0.91525995    0.83308089    -0.11250000
opls_145-18    C    0.56899986    0.29929990    0.02885912    -0.06780000
opls_700-19    C    0.60251995    0.23501988    0.02851992    0.07790000
opls_142-20    C    0.86779966    0.40192982    0.02994923    0.04130000
opls_145-21    C    0.02991973    0.53251974    0.98864024    0.21420000
opls_145-22    C    0.07556969    0.49139982    0.14994027    -0.11140000
opls_145-23    C    0.17452967    0.53527976    0.14844910    -0.11240000
opls_916-24    C    0.23035028    0.62115034    0.98830105    0.20540000
opls_145-25    C    0.18368017    0.66207040    0.83119080    -0.11240000
opls_145-26    C    0.08474028    0.61849024    0.83308089    -0.11260000
opls_750-27    N    0.50878992    0.43756033    0.98743920    -0.23460000
opls_750-28    N    0.56244014    0.07122971    0.98743920    -0.23470000
opls_750-29    N    0.92876994    0.49120995    0.98743920    -0.23470000
opls_239-30    N    0.33332970    0.66666978    0.98755013    -0.10820000
opls_146-31    H    0.72704040    0.22040034    0.02968897    0.04380000
opls_144-32    H    0.64928007    0.54050003    0.05648946    0.03030000
opls_146-33    H    0.57310981    0.60853003    0.28324089    0.04350000
opls_146-34    H    0.49807995    0.70558993    0.27207953    0.04380000
opls_146-35    H    0.27168998    0.49539030    0.70977899    0.04380000
opls_146-36    H    0.34900000    0.39911983    0.71023978    0.04350000
opls_146-37    H    0.77960021    0.50664025    0.02968897    0.04380000
opls_144-38    H    0.45950003    0.10878019    0.05648946    0.03030000
opls_146-39    H    0.39147023    0.96458000    0.28324089    0.04350000
opls_146-40    H    0.29440965    0.79248977    0.27207953    0.04380000
opls_146-41    H    0.50461004    0.77630002    0.70977899    0.04380000
opls_146-42    H    0.60088019    0.94987985    0.71023978    0.04350000
opls_146-43    H    0.49336031    0.27296008    0.02968897    0.04380000
opls_144-44    H    0.89121990    0.35071979    0.05648946    0.03030000
opls_146-45    H    0.03541995    0.42688996    0.28324089    0.04350000
opls_146-46    H    0.20751041    0.50192029    0.27207953    0.04380000
opls_146-47    H    0.22370032    0.72831035    0.70977899    0.04380000
opls_146-48    H    0.05012039    0.65100032    0.71023978    0.04350000
