#======================================================================
# Crystal Data Generated By AuToFF
#----------------------------------------------------------------------

data_AuToFF_phase_1

_cell_length_a                         29.7010
_cell_length_b                         29.7010
_cell_length_c                         3.5264
_cell_angle_alpha                      90.00
_cell_angle_beta                       90.00
_cell_angle_gamma                      120.00
_symmetry_space_group_name_H-M_alt     'P 1'
_symmetry_space_group_IT_number        1

loop_
_space_group_symop_operation_xyz
   'x, y, z'

loop_
   _atom_site_label
   _atom_site_type_symbol
   _atom_site_fract_x
   _atom_site_fract_y
   _atom_site_fract_z
   _atom_site_charge
opls_146-0    H    0.31342988    0.57679006    0.00000000    0.24320000
opls_146-1    H    0.42321004    0.73663994    0.00000000    0.24320000
opls_146-2    H    0.26336008    0.68657000    0.00000000    0.24320000
opls_146-3    H    0.68657012    0.42320994    0.00000000    0.24320000
opls_146-4    H    0.57678995    0.26334995    0.00000000    0.24320000
opls_146-5    H    0.73665002    0.31343000    0.00000000    0.24320000
opls_144-6    H    0.45317002    0.67455997    0.00000000    0.11870000
opls_144-7    H    0.32544022    0.77861015    0.00000000    0.11840000
opls_144-8    H    0.22139010    0.54682989    0.00000000    0.11870000
opls_144-9    H    0.54682998    0.32544003    0.00000000    0.11870000
opls_144-10    H    0.67455978    0.22138985    0.00000000    0.11840000
opls_144-11    H    0.77860990    0.45317011    0.00000000    0.11870000
opls_526-12    H    0.95700004    0.59193012    0.00000000    0.24320000
opls_526-13    H    0.40807027    0.36507020    0.00000000    0.24320000
opls_526-14    H    0.63492988    0.04300007    0.00000000    0.24320000
opls_526-15    H    0.04299996    0.40806988    0.00000000    0.24320000
opls_526-16    H    0.59192993    0.63493019    0.00000000    0.24320000
opls_526-17    H    0.36507012    0.95699993    0.00000000    0.24320000
opls_526-18    H    0.05008992    0.63629984    0.00000000    0.24320000
opls_526-19    H    0.36370012    0.41378993    0.00000000    0.24320000
opls_526-20    H    0.58620976    0.94990984    0.00000000    0.24320000
opls_526-21    H    0.94991008    0.36370016    0.00000000    0.24320000
opls_526-22    H    0.63629988    0.58621007    0.00000000    0.24320000
opls_526-23    H    0.41379024    0.05009016    0.00000000    0.24320000
opls_750-24    N    0.40634987    0.59485993    0.00000000    -0.14910000
opls_750-25    N    0.40513998    0.81149001    0.00000000    -0.14910000
opls_750-26    N    0.18851016    0.59365006    0.00000000    -0.15620000
opls_750-27    N    0.59365990    0.40514007    0.00000000    -0.17370000
opls_750-28    N    0.59486002    0.18850999    0.00000000    -0.15620000
opls_750-29    N    0.81148984    0.40633983    0.00000000    -0.17370000
opls_251-30    N    0.43455996    0.57201007    0.00000000    -0.05720000
opls_251-31    N    0.42799001    0.86255016    0.00000000    -0.05720000
opls_251-32    N    0.13745999    0.56544016    0.00000000    -0.05720000
opls_251-33    N    0.56544004    0.42798993    0.00000000    -0.05700000
opls_251-34    N    0.57201000    0.13745995    0.00000000    -0.05720000
opls_251-35    N    0.86254978    0.43455984    0.00000000    -0.05720000
opls_145-36    C    0.32182991    0.61477998    0.00000000    -0.09560000
opls_145-37    C    0.38521984    0.70704989    0.00000000    -0.09560000
opls_145-38    C    0.29294992    0.67817013    0.00000000    -0.09560000
opls_145-39    C    0.67817009    0.38522002    0.00000000    -0.09560000
opls_145-40    C    0.61478016    0.29295011    0.00000000    -0.09400000
opls_145-41    C    0.70705008    0.32182987    0.00000000    -0.09400000
opls_142-42    C    0.41578995    0.64438014    0.00000000    0.03010000
opls_142-43    C    0.35562017    0.77141003    0.00000000    0.03010000
opls_142-44    C    0.22858988    0.58420983    0.00000000    0.03010000
opls_142-45    C    0.58421005    0.35561986    0.00000000    0.03010000
opls_142-46    C    0.64437983    0.22858997    0.00000000    0.03010000
opls_142-47    C    0.77141012    0.41579017    0.00000000    0.03010000
opls_234-48    C    0.48783000    0.59714009    0.00000000    0.41330000
opls_234-49    C    0.40285994    0.89069008    0.00000000    0.41190000
opls_234-50    C    0.10931006    0.51216982    0.00000000    0.41330000
opls_234-51    C    0.51217000    0.40285991    0.00000000    0.41330000
opls_234-52    C    0.59714006    0.10930992    0.00000000    0.41330000
opls_234-53    C    0.89068994    0.48783018    0.00000000    0.41330000
opls_700-54    C    0.51544999    0.56961988    0.00000000    -0.07020000
opls_700-55    C    0.43038009    0.94583004    0.00000000    -0.07020000
opls_700-56    C    0.05416993    0.48455008    0.00000000    -0.07020000
opls_700-57    C    0.48455001    0.43038012    0.00000000    -0.07020000
opls_700-58    C    0.56961991    0.05416996    0.00000000    -0.07020000
opls_700-59    C    0.94583007    0.51544992    0.00000000    -0.07020000
opls_700-60    C    0.48681002    0.51450014    0.00000000    0.02810000
opls_700-61    C    0.48550009    0.97230989    0.00000000    0.02810000
opls_700-62    C    0.02768990    0.51318997    0.00000000    0.02810000
opls_700-63    C    0.51318998    0.48549986    0.00000000    0.02810000
opls_700-64    C    0.51449991    0.02769011    0.00000000    0.02810000
opls_700-65    C    0.97231010    0.48681003    0.00000000    0.02810000
opls_700-66    C    0.43171004    0.48851014    0.00000000    -0.07000000
opls_700-67    C    0.51148989    0.94319998    0.00000000    -0.07000000
opls_700-68    C    0.05680007    0.56828988    0.00000000    -0.07000000
opls_700-69    C    0.56828996    0.51148986    0.00000000    -0.07000000
opls_700-70    C    0.48851011    0.05680002    0.00000000    -0.07000000
opls_700-71    C    0.94319993    0.43171012    0.00000000    -0.07000000
opls_234-72    C    0.40689992    0.51874984    0.00000000    0.41330000
opls_234-73    C    0.48124976    0.88814983    0.00000000    0.41330000
opls_234-74    C    0.11185013    0.59309994    0.00000000    0.41310000
opls_234-75    C    0.59310008    0.48125016    0.00000000    0.41330000
opls_234-76    C    0.51875024    0.11185017    0.00000000    0.41330000
opls_234-77    C    0.88814987    0.40690006    0.00000000    0.41320000
opls_700-78    C    0.37448996    0.65499992    0.00000000    0.05350000
opls_700-79    C    0.34500000    0.71948991    0.00000000    0.05350000
opls_700-80    C    0.28051004    0.62551017    0.00000000    0.05350000
opls_700-81    C    0.62551004    0.34500008    0.00000000    0.05350000
opls_700-82    C    0.65500000    0.28051009    0.00000000    0.05350000
opls_700-83    C    0.71948996    0.37448983    0.00000000    0.05350000
opls_523-84    C    0.97534014    0.57040015    0.00000000    -0.17200000
opls_523-85    C    0.42959999    0.40493985    0.00000000    -0.17200000
opls_523-86    C    0.59505987    0.02466000    0.00000000    -0.17200000
opls_523-87    C    0.02465986    0.42959985    0.00000000    -0.17200000
opls_523-88    C    0.57040001    0.59506015    0.00000000    -0.17200000
opls_523-89    C    0.40494013    0.97534000    0.00000000    -0.17200000
opls_523-90    C    0.02988997    0.59639015    0.00000000    -0.17200000
opls_523-91    C    0.40361006    0.43350004    0.00000000    -0.17200000
opls_523-92    C    0.56650017    0.97011020    0.00000000    -0.17200000
opls_523-93    C    0.97011003    0.40360985    0.00000000    -0.17200000
opls_523-94    C    0.59638994    0.56649996    0.00000000    -0.17200000
opls_523-95    C    0.43350002    0.02989019    0.00000000    -0.17210000
opls_236-96    O    0.51388984    0.64579995    0.00000000    -0.51940000
opls_236-97    O    0.35419998    0.86808010    0.00000000    -0.51940000
opls_236-98    O    0.13191995    0.48611996    0.00000000    -0.51940000
opls_236-99    O    0.48611992    0.35420005    0.00000000    -0.51940000
opls_236-100    O    0.64580002    0.13191990    0.00000000    -0.51940000
opls_236-101    O    0.86809016    0.51389015    0.00000000    -0.51940000
opls_236-102    O    0.35801999    0.49504001    0.00000000    -0.47070000
opls_236-103    O    0.50495999    0.86298015    0.00000000    -0.47070000
opls_236-104    O    0.13702002    0.64197984    0.00000000    -0.47070000
opls_236-105    O    0.64198001    0.50495999    0.00000000    -0.47070000
opls_236-106    O    0.49504001    0.13701985    0.00000000    -0.47070000
opls_236-107    O    0.86297998    0.35802016    0.00000000    -0.47070000
