#======================================================================
# Crystal Data Generated By AuToFF
#----------------------------------------------------------------------

data_AuToFF_phase_1

_cell_length_a                         45.6580
_cell_length_b                         45.6580
_cell_length_c                         3.4766
_cell_angle_alpha                      90.00
_cell_angle_beta                       90.00
_cell_angle_gamma                      120.00
_symmetry_space_group_name_H-M_alt     'P 1'
_symmetry_space_group_IT_number        1

loop_
_space_group_symop_operation_xyz
   'x, y, z'

loop_
   _atom_site_label
   _atom_site_type_symbol
   _atom_site_fract_x
   _atom_site_fract_y
   _atom_site_fract_z
   _atom_site_charge
opls_520-0    N    0.36556009    0.68221003    0.81028016    -0.35330000
opls_750-1    N    0.44572998    0.59198998    0.81535121    -0.19520000
opls_520-2    N    0.63476995    0.32144011    0.86351896    -0.35330000
opls_750-3    N    0.57404994    0.42897990    0.88669102    -0.19490000
opls_238-4    N    0.50935008    0.49997003    0.91703101    -0.39210000
opls_520-5    N    0.31778996    0.68334986    0.81028016    -0.35330000
opls_750-6    N    0.40800994    0.85373988    0.81535121    -0.19520000
opls_520-7    N    0.67855998    0.31333004    0.86351896    -0.35330000
opls_750-8    N    0.57102002    0.14506996    0.88669102    -0.19490000
opls_238-9    N    0.50002986    0.00937989    0.91703101    -0.39210000
opls_520-10    N    0.31664982    0.63443986    0.81028016    -0.35330000
opls_750-11    N    0.14625996    0.55426989    0.81535121    -0.19520000
opls_520-12    N    0.68666998    0.36523011    0.86351896    -0.35330000
opls_750-13    N    0.85492991    0.42594988    0.88669102    -0.19490000
opls_238-14    N    0.99062006    0.49065008    0.91703101    -0.39210000
opls_531-15    C    0.34900005    0.64984994    0.81032906    0.31560000
opls_522-16    C    0.36603006    0.63158004    0.80866076    -0.01720000
opls_523-17    C    0.39950003    0.64742006    0.82221999    -0.22410000
opls_145-18    C    0.41554995    0.63019009    0.81907036    -0.22410000
opls_145-19    C    0.39844983    0.59674985    0.80165104    0.00810000
opls_145-20    C    0.36508992    0.58089997    0.78843986    -0.22420000
opls_523-21    C    0.34900984    0.59809985    0.79225968    -0.22410000
opls_142-22    C    0.41485998    0.57801992    0.79542081    0.08970000
opls_145-23    C    0.46388985    0.57598988    0.80912961    0.18590000
opls_145-24    C    0.49704002    0.59402003    0.84315135    -0.22630000
opls_145-25    C    0.57551996    0.48082003    0.98038026    -0.22620000
opls_916-26    C    0.52670998    0.48302003    0.90583041    0.18530000
opls_145-27    C    0.55950998    0.49810007    0.98697866    -0.22620000
opls_145-28    C    0.51009993    0.45017006    0.83367083    -0.22620000
opls_234-29    C    0.52089010    0.53063998    0.78739861    0.34710000
opls_531-30    C    0.65468002    0.35348988    0.86349882    0.31560000
opls_522-31    C    0.64166012    0.37540006    0.86435886    -0.01720000
opls_523-32    C    0.60857996    0.36337001    0.87826900    -0.22410000
opls_145-33    C    0.59631002    0.38403009    0.88034862    -0.22410000
opls_145-34    C    0.61687004    0.41717999    0.86793131    0.00810000
opls_145-35    C    0.64985985    0.42921991    0.85339124    -0.22410000
opls_523-36    C    0.66216006    0.40858006    0.85188978    -0.22410000
opls_142-37    C    0.60450003    0.43949987    0.87054881    0.08970000
opls_145-38    C    0.55890994    0.44799991    0.89523960    0.19310000
opls_145-39    C    0.52606992    0.43287004    0.82782891    -0.22620000
opls_145-40    C    0.44933012    0.54285009    0.76563884    -0.21740000
opls_145-41    C    0.50092009    0.54592007    0.79802106    -0.03180000
opls_145-42    C    0.46758005    0.52790003    0.75935972    -0.22410000
opls_145-43    C    0.51544998    0.57918985    0.83676868    -0.22410000
opls_531-44    C    0.35014989    0.69914992    0.81032906    0.31560000
opls_522-45    C    0.36841997    0.73445000    0.80866076    -0.01720000
opls_523-46    C    0.35257996    0.75208006    0.82221999    -0.22410000
opls_145-47    C    0.36980994    0.78535995    0.81907036    -0.22410000
opls_145-48    C    0.40325000    0.80169996    0.80165104    0.00810000
opls_145-49    C    0.41909992    0.78419003    0.78843986    -0.22420000
opls_523-50    C    0.40190003    0.75090988    0.79225968    -0.22410000
opls_142-51    C    0.42197992    0.83683995    0.79542081    0.08970000
opls_145-52    C    0.42400995    0.88789987    0.80912961    0.18590000
opls_145-53    C    0.40597991    0.90301988    0.84315135    -0.22630000
opls_145-54    C    0.51917989    0.09469996    0.98038026    -0.22620000
opls_916-55    C    0.51697997    0.04369010    0.90583041    0.18530000
opls_145-56    C    0.50189994    0.06140994    0.98697866    -0.22620000
opls_145-57    C    0.54983006    0.05992996    0.83367083    -0.22620000
opls_234-58    C    0.46935990    0.99024986    0.78739861    0.34710000
opls_531-59    C    0.64651005    0.30118998    0.86349882    0.31560000
opls_522-60    C    0.62460001    0.26625990    0.86435886    -0.01720000
opls_523-61    C    0.63662997    0.24521010    0.87826900    -0.22410000
opls_145-62    C    0.61597002    0.21227997    0.88034862    -0.22410000
opls_145-63    C    0.58281994    0.19968999    0.86793131    0.00810000
opls_145-64    C    0.57077989    0.22063990    0.85339124    -0.22410000
opls_523-65    C    0.59142002    0.25357989    0.85188978    -0.22410000
opls_142-66    C    0.56049987    0.16499992    0.87054881    0.08970000
opls_145-67    C    0.55199995    0.11090997    0.89523960    0.19310000
opls_145-68    C    0.56713002    0.09319999    0.82782891    -0.22620000
opls_145-69    C    0.45714986    0.90647983    0.76563884    -0.21740000
opls_145-70    C    0.45407994    0.95499986    0.79802106    -0.03180000
opls_145-71    C    0.47210010    0.93968006    0.75935972    -0.22410000
opls_145-72    C    0.42080996    0.93626007    0.83676868    -0.22410000
opls_531-73    C    0.30084994    0.65099989    0.81032906    0.31560000
opls_522-74    C    0.26554997    0.63396996    0.80866076    -0.01720000
opls_523-75    C    0.24792001    0.60049989    0.82221999    -0.22410000
opls_145-76    C    0.21463989    0.58444996    0.81907036    -0.22410000
opls_145-77    C    0.19830005    0.60154994    0.80165104    0.00810000
opls_145-78    C    0.21580994    0.63491000    0.78843986    -0.22420000
opls_523-79    C    0.24909000    0.65099002    0.79225968    -0.22410000
opls_142-80    C    0.16315998    0.58513988    0.79542081    0.08970000
opls_145-81    C    0.11210007    0.53611000    0.80912961    0.18590000
opls_145-82    C    0.09698007    0.50296009    0.84315135    -0.22630000
opls_145-83    C    0.90529993    0.42448001    0.98038026    -0.22620000
opls_916-84    C    0.95630983    0.47328987    0.90583041    0.18530000
opls_145-85    C    0.93859008    0.44048998    0.98697866    -0.22620000
opls_145-86    C    0.94007001    0.48989997    0.83367083    -0.22620000
opls_234-87    C    0.00974988    0.47910991    0.78739861    0.34710000
opls_531-88    C    0.69881001    0.34531988    0.86349882    0.31550000
opls_522-89    C    0.73374009    0.35834004    0.86435886    -0.01720000
opls_523-90    C    0.75478984    0.39141989    0.87826900    -0.22410000
opls_145-91    C    0.78771996    0.40368994    0.88034862    -0.22410000
opls_145-92    C    0.80031002    0.38313001    0.86793131    0.00810000
opls_145-93    C    0.77935991    0.35013994    0.85339124    -0.22410000
opls_523-94    C    0.74642013    0.33784005    0.85188978    -0.22410000
opls_142-95    C    0.83499997    0.39549996    0.87054881    0.08970000
opls_145-96    C    0.88908999    0.44108987    0.89523960    0.19310000
opls_145-97    C    0.90680006    0.47392996    0.82782891    -0.22620000
opls_145-98    C    0.09352002    0.55067008    0.76563884    -0.21750000
opls_145-99    C    0.04499998    0.49908007    0.79802106    -0.03180000
opls_145-100    C    0.06031985    0.53241990    0.75935972    -0.22410000
opls_145-101    C    0.06374006    0.48455008    0.83676868    -0.22410000
opls_146-102    H    0.50863008    0.61964002    0.87532072    0.22040000
opls_526-103    H    0.41338011    0.67317004    0.83550883    0.22040000
opls_146-104    H    0.44134004    0.64308000    0.82954036    0.22040000
opls_146-105    H    0.35141011    0.55513001    0.77469079    0.22040000
opls_526-106    H    0.32322993    0.58511990    0.78107922    0.22040000
opls_146-107    H    0.48471987    0.43799991    0.77807053    0.22040000
opls_146-108    H    0.57267987    0.52298994    0.06663982    0.22040000
opls_144-109    H    0.53526007    0.15663998    0.85148996    0.10800000
opls_146-110    H    0.51284999    0.40756997    0.76779900    0.22040000
opls_526-111    H    0.59209004    0.33795992    0.88848875    0.22040000
opls_146-112    H    0.57073006    0.37403009    0.89183110    0.22040000
opls_146-113    H    0.66616992    0.45468993    0.84353104    0.22040000
opls_526-114    H    0.68775014    0.41869007    0.84057125    0.22050000
opls_146-115    H    0.54107004    0.59372009    0.86548927    0.22040000
opls_146-116    H    0.45547995    0.50241989    0.71483921    0.22060000
opls_144-117    H    0.44769004    0.84833991    0.77396882    0.10700000
opls_241-118    H    0.48608007    0.48729002    0.02205891    0.26420000
opls_146-119    H    0.60055997    0.49315988    0.05214865    0.22040000
opls_146-120    H    0.42067992    0.52720987    0.73342058    0.03710000
opls_146-121    H    0.38035985    0.88898988    0.87532072    0.22040000
opls_526-122    H    0.32682992    0.74020984    0.83550883    0.22040000
opls_146-123    H    0.35692008    0.79825998    0.82954036    0.22040000
opls_146-124    H    0.44487004    0.79628001    0.77469079    0.22040000
opls_526-125    H    0.41488005    0.73811000    0.78107922    0.22040000
opls_146-126    H    0.56200004    0.04671987    0.77807053    0.22040000
opls_146-127    H    0.47700999    0.04968995    0.06663982    0.22040000
opls_144-128    H    0.84335990    0.37862001    0.85148996    0.10800000
opls_146-129    H    0.59243002    0.10528012    0.76779900    0.22040000
opls_526-130    H    0.66204001    0.25412995    0.88848875    0.22040000
opls_146-131    H    0.62596988    0.19669993    0.89183110    0.22040000
opls_146-132    H    0.54531008    0.21148004    0.84353104    0.22040000
opls_526-133    H    0.58130999    0.26906003    0.84057125    0.22050000
opls_146-134    H    0.40627993    0.94734983    0.86548927    0.22040000
opls_146-135    H    0.49757991    0.95305985    0.71483921    0.22060000
opls_144-136    H    0.15165995    0.59934994    0.77396882    0.10710000
opls_241-137    H    0.51271014    0.99879012    0.02205891    0.26420000
opls_146-138    H    0.50684006    0.10739994    0.05214865    0.22040000
opls_146-139    H    0.47279004    0.89347004    0.73342058    0.03710000
opls_146-140    H    0.11101007    0.49137009    0.87532072    0.22040000
opls_526-141    H    0.25978985    0.58661986    0.83550883    0.22040000
opls_146-142    H    0.20174010    0.55866001    0.82954036    0.22040000
opls_146-143    H    0.20372006    0.64858998    0.77469079    0.22040000
opls_526-144    H    0.26188990    0.67676985    0.78107922    0.22040000
opls_146-145    H    0.95327996    0.51527997    0.77807053    0.22040000
opls_146-146    H    0.95031002    0.42731985    0.06663982    0.22040000
opls_144-147    H    0.62138003    0.46474001    0.85148996    0.10800000
opls_146-148    H    0.89471999    0.48714992    0.76779900    0.22040000
opls_526-149    H    0.74587004    0.40790987    0.88848875    0.22040000
opls_146-150    H    0.80330007    0.42926998    0.89183110    0.22040000
opls_146-151    H    0.78851999    0.33383003    0.84353104    0.22040000
opls_526-152    H    0.73093988    0.31224990    0.84057125    0.22050000
opls_146-153    H    0.05265003    0.45893009    0.86548927    0.22040000
opls_146-154    H    0.04694001    0.54452000    0.71483921    0.22060000
opls_144-155    H    0.40064989    0.55230989    0.77396882    0.10710000
opls_241-156    H    0.00121001    0.51391986    0.02205891    0.26420000
opls_146-157    H    0.89260007    0.39943992    0.05214865    0.22040000
opls_146-158    H    0.10653004    0.57932009    0.73342058    0.03710000
opls_236-159    O    0.54785998    0.54577996    0.65828971    -0.41620000
opls_236-160    O    0.45422001    0.00208012    0.65828971    -0.41620000
opls_236-161    O    0.99792002    0.45213992    0.65828971    -0.41620000
