#======================================================================
# Crystal Data Generated By AuToFF
#----------------------------------------------------------------------

data_AuToFF_phase_1

_cell_length_a                         10.5151
_cell_length_b                         10.5273
_cell_length_c                         3.3986
_cell_angle_alpha                      90.05
_cell_angle_beta                       89.24
_cell_angle_gamma                      120.57
_symmetry_space_group_name_H-M_alt     'P 1'
_symmetry_space_group_IT_number        1

loop_
_space_group_symop_operation_xyz
   'x, y, z'

loop_
   _atom_site_label
   _atom_site_type_symbol
   _atom_site_fract_x
   _atom_site_fract_y
   _atom_site_fract_z
   _atom_site_charge
opls_281-0    O    0.14154968    0.35173010    0.48603092    -0.44170000
opls_281-1    O    0.65849960    0.70977964    0.45967889    -0.44210000
opls_281-2    O    0.30391022    0.86690034    0.49580957    -0.44060000
opls_280-3    C    0.24656947    0.48545974    0.48342073    0.17350000
opls_700-4    C    0.40262989    0.52466032    0.47237083    -0.10130000
opls_280-5    C    0.52503015    0.67998991    0.46928980    0.17350000
opls_700-6    C    0.48737960    0.79711967    0.47762946    -0.10670000
opls_142-7    C    0.59758028    0.94460035    0.47521938    -0.06900000
opls_280-8    C    0.33236993    0.76295046    0.48882945    0.17350000
opls_700-9    C    0.21397979    0.60664003    0.49151909    -0.10630000
opls_142-10    C    0.06671989    0.56815060    0.50188040    0.06170000
opls_142-11    C    0.43222972    0.41151998    0.46650011    0.06480000
opls_141-12    C    0.69271980    0.31854027    0.44771969    0.40870000
opls_238-13    N    0.55298928    0.43205963    0.45080954    -0.11060000
opls_238-14    N    0.70592978    0.20060006    0.46296885    -0.23740000
opls_238-15    N    0.81043022    0.45475014    0.47132028    -0.23680000
opls_238-16    N    0.57775947    0.06430974    0.47622873    -0.12460000
opls_238-17    N    0.55973964    0.30431993    0.44131928    -0.24110000
opls_238-18    N    0.95006992    0.47570991    0.45612997    -0.11460000
opls_144-19    H    0.03626961    0.65760000    0.52152009    0.02660000
opls_910-20    H    0.81722981    0.21297008    0.46479039    0.26960000
opls_910-21    H    0.45646980    0.19525989    0.42885099    0.22020000
opls_910-22    H    0.96579035    0.37935060    0.43413022    0.22020000
opls_910-23    H    0.64887993    0.54647062    0.44490057    0.26950000
opls_144-24    H    0.33758004    0.29205965    0.47704092    0.02660000
opls_144-25    H    0.71862964    0.97623032    0.46981949    0.02660000
opls_910-26    H    0.46868973    0.05443049    0.49106003    0.27110000
opls_910-27    H    0.79568984    0.55072039    0.50929016    0.26970000
opls_401-28    Cl    0.86945977    0.73218062    0.25009858    0.11700000
