#======================================================================
# Crystal Data Generated By AuToFF
#----------------------------------------------------------------------

data_AuToFF_phase_1

_cell_length_a                         37.7011
_cell_length_b                         37.7011
_cell_length_c                         3.6196
_cell_angle_alpha                      90.00
_cell_angle_beta                       90.00
_cell_angle_gamma                      120.00
_symmetry_space_group_name_H-M_alt     'P 1'
_symmetry_space_group_IT_number        1

loop_
_space_group_symop_operation_xyz
   'x, y, z'

loop_
   _atom_site_label
   _atom_site_type_symbol
   _atom_site_fract_x
   _atom_site_fract_y
   _atom_site_fract_z
   _atom_site_charge
opls_145-0    C    0.69789994    0.52423009    0.11142115    -0.15810000
opls_145-1    C    0.73514000    0.52546990    0.12935960    -0.15810000
opls_145-2    C    0.77159983    0.56236993    0.19330865    0.22210000
opls_145-3    C    0.76908013    0.59783015    0.25687092    -0.15820000
opls_145-4    C    0.73182997    0.59657012    0.24007073    -0.15720000
opls_145-5    C    0.69558003    0.56001986    0.15945961    0.21590000
opls_142-6    C    0.62312003    0.53109009    0.03663941    0.08890000
opls_142-7    C    0.84421984    0.59391990    0.10166040    0.08890000
opls_700-8    C    0.87780991    0.58694994    0.02101890    0.06580000
opls_145-9    C    0.87417019    0.54804011    0.05183998    -0.11010000
opls_145-10    C    0.90599999    0.54172987    0.96651011    -0.11960000
opls_700-11    C    0.94458996    0.57484002    0.84778981    0.06610000
opls_145-12    C    0.94811002    0.61426011    0.82043043    -0.12040000
opls_145-13    C    0.91570008    0.61974003    0.90558902    -0.11000000
opls_700-14    C    0.97899008    0.56905995    0.78976959    0.07990000
opls_145-15    C    0.97365003    0.53097003    0.68021881    -0.16330000
opls_700-16    C    0.00464012    0.52098998    0.72346944    0.07420000
opls_145-17    C    0.04395003    0.55321008    0.83148138    -0.14690000
opls_700-18    C    0.05150999    0.59220995    0.91870096    0.06340000
opls_145-19    C    0.01901994    0.59963994    0.89549121    -0.16330000
opls_145-20    C    0.47577000    0.17366986    0.11142115    -0.15810000
opls_145-21    C    0.47453007    0.20967004    0.12935960    -0.15810000
opls_145-22    C    0.43762991    0.20922992    0.19330865    0.22210000
opls_145-23    C    0.40216985    0.17124996    0.25687092    -0.15820000
opls_145-24    C    0.40342996    0.13525988    0.24007073    -0.15720000
opls_145-25    C    0.43998003    0.13556003    0.15945961    0.21590000
opls_142-26    C    0.46891009    0.09203001    0.03663941    0.08900000
opls_142-27    C    0.40607996    0.25029992    0.10166040    0.08890000
opls_700-28    C    0.41305003    0.29085997    0.02101890    0.06580000
opls_145-29    C    0.45196001    0.32612999    0.05183998    -0.11010000
opls_145-30    C    0.45826998    0.36427014    0.96651011    -0.11960000
opls_700-31    C    0.42516006    0.36975006    0.84778981    0.06610000
opls_145-32    C    0.38574011    0.33385002    0.82043043    -0.12040000
opls_145-33    C    0.38026001    0.29596011    0.90558902    -0.11010000
opls_700-34    C    0.43094011    0.40993001    0.78976959    0.07990000
opls_145-35    C    0.46903011    0.44267998    0.68021881    -0.16330000
opls_700-36    C    0.47901019    0.48365013    0.72346944    0.07420000
opls_145-37    C    0.44679019    0.49074015    0.83148138    -0.13930000
opls_700-38    C    0.40778996    0.45930014    0.91870096    0.06340000
opls_145-39    C    0.40035999    0.41937990    0.89549121    -0.16330000
opls_145-40    C    0.82633006    0.30210005    0.11142115    -0.15810000
opls_145-41    C    0.79032993    0.26486006    0.12935960    -0.15810000
opls_145-42    C    0.79076999    0.22840015    0.19330865    0.22200000
opls_145-43    C    0.82875001    0.23091990    0.25687092    -0.15820000
opls_145-44    C    0.86474007    0.26817000    0.24007073    -0.15720000
opls_145-45    C    0.86443994    0.30442011    0.15945961    0.21590000
opls_142-46    C    0.90796988    0.37687989    0.03663941    0.08890000
opls_142-47    C    0.74970004    0.15577987    0.10166040    0.08890000
opls_700-48    C    0.70914006    0.12219009    0.02101890    0.06580000
opls_145-49    C    0.67387007    0.12582990    0.05183998    -0.11010000
opls_145-50    C    0.63573003    0.09399999    0.96651011    -0.11960000
opls_700-51    C    0.63024998    0.05540992    0.84778981    0.06610000
opls_145-52    C    0.66614986    0.05188987    0.82043043    -0.12030000
opls_145-53    C    0.70403991    0.08429987    0.90558902    -0.11010000
opls_700-54    C    0.59007007    0.02101004    0.78976959    0.07990000
opls_145-55    C    0.55732012    0.02634999    0.68021881    -0.16330000
opls_700-56    C    0.51634996    0.99535989    0.72346944    0.07420000
opls_145-57    C    0.50925993    0.95605007    0.83148138    -0.13930000
opls_700-58    C    0.54070005    0.94848991    0.91870096    0.06340000
opls_145-59    C    0.58062007    0.98098016    0.89549121    -0.16330000
opls_145-60    C    0.30210006    0.47576991    0.11142115    -0.15810000
opls_145-61    C    0.26486000    0.47453010    0.12935960    -0.15810000
opls_145-62    C    0.22840017    0.43763007    0.19330865    0.22200000
opls_145-63    C    0.23091987    0.40216985    0.25687092    -0.15820000
opls_145-64    C    0.26817003    0.40342988    0.24007073    -0.15720000
opls_145-65    C    0.30441997    0.43998014    0.15945961    0.21590000
opls_142-66    C    0.37687997    0.46890991    0.03663941    0.08890000
opls_142-67    C    0.15578016    0.40608010    0.10166040    0.08890000
opls_700-68    C    0.12219009    0.41305006    0.02101890    0.06580000
opls_145-69    C    0.12582981    0.45195989    0.05183998    -0.11010000
opls_145-70    C    0.09400001    0.45827013    0.96651011    -0.11960000
opls_700-71    C    0.05541004    0.42515998    0.84778981    0.06610000
opls_145-72    C    0.05188998    0.38573989    0.82043043    -0.12040000
opls_145-73    C    0.08429992    0.38025997    0.90558902    -0.11010000
opls_700-74    C    0.02100992    0.43094005    0.78976959    0.07990000
opls_145-75    C    0.02634997    0.46902997    0.68021881    -0.16330000
opls_700-76    C    0.99535988    0.47901002    0.72346944    0.07430000
opls_145-77    C    0.95604997    0.44678992    0.83148138    -0.14700000
opls_700-78    C    0.94849001    0.40779005    0.91870096    0.06340000
opls_145-79    C    0.98098006    0.40036006    0.89549121    -0.16330000
opls_145-80    C    0.52423000    0.82633014    0.11142115    -0.15810000
opls_145-81    C    0.52546993    0.79032996    0.12935960    -0.15810000
opls_145-82    C    0.56237009    0.79077008    0.19330865    0.22210000
opls_145-83    C    0.59783015    0.82875004    0.25687092    -0.15810000
opls_145-84    C    0.59657004    0.86474012    0.24007073    -0.15720000
opls_145-85    C    0.56001997    0.86443997    0.15945961    0.21600000
opls_142-86    C    0.53108991    0.90796999    0.03663941    0.08890000
opls_142-87    C    0.59392004    0.74970008    0.10166040    0.08890000
opls_700-88    C    0.58694997    0.70914003    0.02101890    0.06580000
opls_145-89    C    0.54803999    0.67387001    0.05183998    -0.11000000
opls_145-90    C    0.54173002    0.63572986    0.96651011    -0.11950000
opls_700-91    C    0.57483994    0.63024994    0.84778981    0.06610000
opls_145-92    C    0.61425989    0.66614998    0.82043043    -0.12040000
opls_145-93    C    0.61973999    0.70403989    0.90558902    -0.11010000
opls_700-94    C    0.56905989    0.59006999    0.78976959    0.07990000
opls_145-95    C    0.53096989    0.55732002    0.68021881    -0.16330000
opls_700-96    C    0.52098981    0.51634987    0.72346944    0.07420000
opls_145-97    C    0.55320996    0.50926015    0.83148138    -0.13930000
opls_700-98    C    0.59221004    0.54069986    0.91870096    0.06340000
opls_145-99    C    0.59964001    0.58062010    0.89549121    -0.16330000
opls_145-100    C    0.17366994    0.69789995    0.11142115    -0.15810000
opls_145-101    C    0.20967007    0.73513994    0.12935960    -0.15810000
opls_145-102    C    0.20923016    0.77160016    0.19330865    0.22200000
opls_145-103    C    0.17124999    0.76908010    0.25687092    -0.15810000
opls_145-104    C    0.13525993    0.73183000    0.24007073    -0.15710000
opls_145-105    C    0.13556006    0.69557989    0.15945961    0.21590000
opls_142-106    C    0.09203012    0.62312011    0.03663941    0.08900000
opls_142-107    C    0.25029996    0.84422013    0.10166040    0.08900000
opls_700-108    C    0.29085994    0.87780991    0.02101890    0.06580000
opls_145-109    C    0.32612993    0.87417010    0.05183998    -0.11010000
opls_145-110    C    0.36426997    0.90600001    0.96651011    -0.11960000
opls_700-111    C    0.36975002    0.94459008    0.84778981    0.06610000
opls_145-112    C    0.33385014    0.94811013    0.82043043    -0.12020000
opls_145-113    C    0.29596009    0.91570013    0.90558902    -0.11010000
opls_700-114    C    0.40992993    0.97898996    0.78976959    0.07990000
opls_145-115    C    0.44267988    0.97365001    0.68021881    -0.16330000
opls_700-116    C    0.48365004    0.00464011    0.72346944    0.07420000
opls_145-117    C    0.49074007    0.04394993    0.83148138    -0.13930000
opls_700-118    C    0.45929995    0.05151009    0.91870096    0.06340000
opls_145-119    C    0.41938008    0.01902015    0.89549121    -0.16330000
opls_750-120    N    0.65927993    0.56104987    0.11423914    -0.26980000
opls_750-121    N    0.80881010    0.56267008    0.17856117    -0.27320000
opls_750-122    N    0.43895004    0.09822999    0.11423914    -0.26990000
opls_750-123    N    0.43733009    0.24614006    0.17856117    -0.27310000
opls_750-124    N    0.90177003    0.34072014    0.11423914    -0.26980000
opls_750-125    N    0.75385981    0.19118986    0.17856117    -0.27320000
opls_750-126    N    0.34072007    0.43895013    0.11423914    -0.26990000
opls_750-127    N    0.19118990    0.43732992    0.17856117    -0.27320000
opls_750-128    N    0.56104996    0.90177001    0.11423914    -0.26990000
opls_750-129    N    0.56266991    0.75385994    0.17856117    -0.27320000
opls_750-130    N    0.09822997    0.65927986    0.11423914    -0.26980000
opls_750-131    N    0.24614019    0.80881014    0.17856117    -0.27320000
opls_146-132    H    0.67045993    0.49488991    0.04672063    0.08870000
opls_146-133    H    0.73610006    0.49722007    0.07856946    0.11350000
opls_146-134    H    0.79675998    0.62729988    0.31310090    0.07360000
opls_146-135    H    0.73096991    0.62501995    0.28079070    0.11350000
opls_144-136    H    0.61524007    0.49880016    0.02798099    0.07120000
opls_144-137    H    0.84952012    0.62514001    0.06258979    0.06970000
opls_146-138    H    0.84538005    0.52158997    0.14614046    0.06460000
opls_146-139    H    0.90206016    0.51108005    0.00492043    0.10130000
opls_146-140    H    0.97712989    0.64058988    0.72863024    0.06460000
opls_146-141    H    0.91986990    0.65059995    0.87717980    0.11370000
opls_146-142    H    0.94288001    0.50689998    0.59853022    0.08360000
opls_146-143    H    0.06856005    0.54615007    0.87414908    0.09310000
opls_146-144    H    0.02326001    0.62926005    0.98687977    0.08670000
opls_146-145    H    0.50510996    0.17557001    0.04672063    0.08870000
opls_146-146    H    0.50278004    0.23888005    0.07856946    0.11370000
opls_146-147    H    0.37270015    0.16946007    0.31310090    0.07360000
opls_146-148    H    0.37497994    0.10595003    0.28079070    0.11350000
opls_144-149    H    0.50119993    0.11644004    0.02798099    0.07130000
opls_144-150    H    0.37486003    0.22437995    0.06258979    0.06970000
opls_146-151    H    0.47840992    0.32379003    0.14614046    0.06460000
opls_146-152    H    0.48891990    0.39098000    0.00492043    0.10140000
opls_146-153    H    0.35941008    0.33654006    0.72863024    0.06460000
opls_146-154    H    0.34940016    0.26927015    0.87717980    0.11370000
opls_146-155    H    0.49310009    0.43598015    0.59853022    0.08360000
opls_146-156    H    0.45384998    0.52240988    0.87414908    0.09310000
opls_146-157    H    0.37073997    0.39399990    0.98687977    0.08660000
opls_146-158    H    0.82443011    0.32954008    0.04672063    0.08870000
opls_146-159    H    0.76111991    0.26389988    0.07856946    0.11350000
opls_146-160    H    0.83054014    0.20324005    0.31310090    0.07360000
opls_146-161    H    0.89404988    0.26903003    0.28079070    0.11360000
opls_144-162    H    0.88356015    0.38476011    0.02798099    0.07120000
opls_144-163    H    0.77562012    0.15048004    0.06258979    0.06970000
opls_146-164    H    0.67621003    0.15462000    0.14614046    0.06460000
opls_146-165    H    0.60901994    0.09793995    0.00492043    0.10130000
opls_146-166    H    0.66346004    0.02287006    0.72863024    0.06460000
opls_146-167    H    0.73072994    0.08012990    0.87717980    0.11370000
opls_146-168    H    0.56401991    0.05711987    0.59853022    0.08360000
opls_146-169    H    0.47758997    0.93144005    0.87414908    0.09310000
opls_146-170    H    0.60600001    0.97674005    0.98687977    0.08660000
opls_146-171    H    0.32954007    0.50511009    0.04672063    0.08870000
opls_146-172    H    0.26389994    0.50277993    0.07856946    0.11360000
opls_146-173    H    0.20324002    0.37270012    0.31310090    0.07360000
opls_146-174    H    0.26903009    0.37498005    0.28079070    0.11350000
opls_144-175    H    0.38476009    0.50120015    0.02798099    0.07120000
opls_144-176    H    0.15047988    0.37485999    0.06258979    0.06970000
opls_146-177    H    0.15461995    0.47841003    0.14614046    0.06460000
opls_146-178    H    0.09793984    0.48891995    0.00492043    0.10140000
opls_146-179    H    0.02287011    0.35941012    0.72863024    0.06460000
opls_146-180    H    0.08013010    0.34940005    0.87717980    0.11370000
opls_146-181    H    0.05711999    0.49310002    0.59853022    0.08360000
opls_146-182    H    0.93143995    0.45384993    0.87414908    0.09310000
opls_146-183    H    0.97673999    0.37073995    0.98687977    0.08660000
opls_146-184    H    0.49489004    0.82442999    0.04672063    0.08870000
opls_146-185    H    0.49721996    0.76111995    0.07856946    0.11350000
opls_146-186    H    0.62729985    0.83053993    0.31310090    0.07360000
opls_146-187    H    0.62502006    0.89404997    0.28079070    0.11350000
opls_144-188    H    0.49880007    0.88355996    0.02798099    0.07130000
opls_144-189    H    0.62513997    0.77562005    0.06258979    0.06970000
opls_146-190    H    0.52159008    0.67620997    0.14614046    0.06460000
opls_146-191    H    0.51108010    0.60902000    0.00492043    0.10130000
opls_146-192    H    0.64058992    0.66345994    0.72863024    0.06460000
opls_146-193    H    0.65059999    0.73073016    0.87717980    0.11370000
opls_146-194    H    0.50690007    0.56402015    0.59853022    0.08370000
opls_146-195    H    0.54615002    0.47759012    0.87414908    0.09310000
opls_146-196    H    0.62926003    0.60600010    0.98687977    0.08660000
opls_146-197    H    0.17556989    0.67045992    0.04672063    0.08870000
opls_146-198    H    0.23888009    0.73610012    0.07856946    0.11350000
opls_146-199    H    0.16945986    0.79675995    0.31310090    0.07370000
opls_146-200    H    0.10595012    0.73096997    0.28079070    0.11350000
opls_144-201    H    0.11643985    0.61523989    0.02798099    0.07120000
opls_144-202    H    0.22437988    0.84951996    0.06258979    0.06970000
opls_146-203    H    0.32378997    0.84538000    0.14614046    0.06460000
opls_146-204    H    0.39098006    0.90206005    0.00492043    0.10140000
opls_146-205    H    0.33653996    0.97712994    0.72863024    0.06460000
opls_146-206    H    0.26927006    0.91987010    0.87717980    0.11370000
opls_146-207    H    0.43598009    0.94288013    0.59853022    0.08360000
opls_146-208    H    0.52241003    0.06855995    0.87414908    0.09310000
opls_146-209    H    0.39399999    0.02325995    0.98687977    0.08660000
