#======================================================================
# Crystal Data Generated By AuToFF
#----------------------------------------------------------------------

data_AuToFF_phase_1

_cell_length_a                         37.3249
_cell_length_b                         37.3249
_cell_length_c                         3.5317
_cell_angle_alpha                      90.00
_cell_angle_beta                       90.00
_cell_angle_gamma                      120.00
_symmetry_space_group_name_H-M_alt     'P 1'
_symmetry_space_group_IT_number        1

loop_
_space_group_symop_operation_xyz
   'x, y, z'

loop_
   _atom_site_label
   _atom_site_type_symbol
   _atom_site_fract_x
   _atom_site_fract_y
   _atom_site_fract_z
   _atom_site_charge
opls_700-0    C    0.35192992    0.64179993    0.00000000    0.05970000
opls_700-1    C    0.35819987    0.71012993    0.00000000    0.05970000
opls_700-2    C    0.28986994    0.64807014    0.00000000    0.05970000
opls_700-3    C    0.64807008    0.35820007    0.00000000    0.05970000
opls_700-4    C    0.64180013    0.28987007    0.00000000    0.05970000
opls_700-5    C    0.71013006    0.35192986    0.00000000    0.05980000
opls_145-6    C    0.37630006    0.68505004    0.00000000    -0.10210000
opls_145-7    C    0.31495005    0.69125002    0.00000000    -0.10220000
opls_145-8    C    0.30874989    0.62369993    0.00000000    -0.10210000
opls_145-9    C    0.62369994    0.31494996    0.00000000    -0.10210000
opls_145-10    C    0.68504995    0.30874998    0.00000000    -0.10220000
opls_145-11    C    0.69125011    0.37630007    0.00000000    -0.10210000
opls_700-12    C    0.37145998    0.61567996    0.00000000    0.05450000
opls_700-13    C    0.38432007    0.75578009    0.00000000    0.05450000
opls_700-14    C    0.24421995    0.62853994    0.00000000    0.05450000
opls_700-15    C    0.62854002    0.38432004    0.00000000    0.05450000
opls_700-16    C    0.61567993    0.24421991    0.00000000    0.05460000
opls_700-17    C    0.75578005    0.37146006    0.00000000    0.05450000
opls_145-18    C    0.34705997    0.57235994    0.00000000    -0.14530000
opls_145-19    C    0.42763995    0.77469991    0.00000000    -0.14520000
opls_145-20    C    0.22530008    0.65294016    0.00000000    -0.14530000
opls_145-21    C    0.65294003    0.42764006    0.00000000    -0.14530000
opls_145-22    C    0.57236005    0.22530009    0.00000000    -0.14530000
opls_145-23    C    0.77470007    0.34706015    0.00000000    -0.14530000
opls_145-24    C    0.36545997    0.54770017    0.00000000    -0.19280000
opls_145-25    C    0.45230011    0.81776007    0.00000000    -0.19280000
opls_145-26    C    0.18224007    0.63454007    0.00000000    -0.19280000
opls_145-27    C    0.63454018    0.45230014    0.00000000    -0.19280000
opls_145-28    C    0.54769989    0.18223993    0.00000000    -0.19280000
opls_145-29    C    0.81775993    0.36545993    0.00000000    -0.19280000
opls_145-30    C    0.40852011    0.56587008    0.00000000    0.16490000
opls_145-31    C    0.43413013    0.84265001    0.00000000    0.16490000
opls_145-32    C    0.15735003    0.59147991    0.00000000    0.16490000
opls_145-33    C    0.59147989    0.43412992    0.00000000    0.16490000
opls_145-34    C    0.56586987    0.15734999    0.00000000    0.16490000
opls_145-35    C    0.84264997    0.40852009    0.00000000    0.16490000
opls_145-36    C    0.41470016    0.63380007    0.00000000    -0.14530000
opls_145-37    C    0.36619991    0.78089989    0.00000000    -0.14530000
opls_145-38    C    0.21909992    0.58530004    0.00000000    -0.14530000
opls_145-39    C    0.58529984    0.36619993    0.00000000    -0.14530000
opls_145-40    C    0.63380009    0.21910011    0.00000000    -0.14530000
opls_145-41    C    0.78090008    0.41469996    0.00000000    -0.14530000
opls_145-42    C    0.43311998    0.60916010    0.00000000    -0.18680000
opls_145-43    C    0.39083998    0.82396005    0.00000000    -0.18680000
opls_145-44    C    0.17604019    0.56688016    0.00000000    -0.18680000
opls_145-45    C    0.56688002    0.39083990    0.00000000    -0.18680000
opls_145-46    C    0.60916002    0.17603995    0.00000000    -0.18680000
opls_145-47    C    0.82395996    0.43312015    0.00000000    -0.18680000
opls_142-48    C    0.46598004    0.55394005    0.00000000    0.04030000
opls_142-49    C    0.44605999    0.91204020    0.00000000    0.04030000
opls_142-50    C    0.08796012    0.53402006    0.00000000    0.04030000
opls_142-51    C    0.53401996    0.44605995    0.00000000    0.04030000
opls_142-52    C    0.55394016    0.08796011    0.00000000    0.04030000
opls_142-53    C    0.91203988    0.46597994    0.00000000    0.04030000
opls_700-54    C    0.48301991    0.52607991    0.00000000    0.04800000
opls_700-55    C    0.47392003    0.95694015    0.00000000    0.04800000
opls_700-56    C    0.04306006    0.51697994    0.00000000    0.04810000
opls_700-57    C    0.51698009    0.47392009    0.00000000    0.04800000
opls_700-58    C    0.52607997    0.04305985    0.00000000    0.04800000
opls_700-59    C    0.95693994    0.48302006    0.00000000    0.04800000
opls_145-60    C    0.45709012    0.48301016    0.00000000    -0.13610000
opls_145-61    C    0.51699007    0.97408019    0.00000000    -0.13610000
opls_145-62    C    0.02591996    0.54290996    0.00000000    -0.13610000
opls_145-63    C    0.54291004    0.51699015    0.00000000    -0.13600000
opls_145-64    C    0.48301008    0.02592012    0.00000000    -0.13610000
opls_145-65    C    0.97408004    0.45709004    0.00000000    -0.13600000
opls_145-66    C    0.47405994    0.45706003    0.00000000    -0.13750000
opls_145-67    C    0.54293996    0.01699990    0.00000000    -0.13750000
opls_145-68    C    0.98300010    0.52594007    0.00000000    -0.13750000
opls_145-69    C    0.52594006    0.54293997    0.00000000    -0.13750000
opls_145-70    C    0.45706004    0.98300010    0.00000000    -0.13750000
opls_145-71    C    0.01699990    0.47405993    0.00000000    -0.13750000
opls_750-72    N    0.42641987    0.53973990    0.00000000    -0.40500000
opls_750-73    N    0.46026008    0.88668003    0.00000000    -0.40490000
opls_750-74    N    0.11332005    0.57358007    0.00000000    -0.40480000
opls_750-75    N    0.57358013    0.46026010    0.00000000    -0.40490000
opls_750-76    N    0.53973992    0.11331997    0.00000000    -0.40490000
opls_750-77    N    0.88667995    0.42641993    0.00000000    -0.40500000
opls_146-78    H    0.40849022    0.69885018    0.00000000    0.20700000
opls_146-79    H    0.30114988    0.70963990    0.00000000    0.20710000
opls_146-80    H    0.29035990    0.59150992    0.00000000    0.20700000
opls_146-81    H    0.59150993    0.30115013    0.00000000    0.20700000
opls_146-82    H    0.69885012    0.29036010    0.00000000    0.20700000
opls_146-83    H    0.70964010    0.40849008    0.00000000    0.20700000
opls_146-84    H    0.31395994    0.55471996    0.00000000    0.20610000
opls_146-85    H    0.44527993    0.75924003    0.00000000    0.20620000
opls_146-86    H    0.24076012    0.68604001    0.00000000    0.20610000
opls_146-87    H    0.68604006    0.44528004    0.00000000    0.20610000
opls_146-88    H    0.55472007    0.24075997    0.00000000    0.20610000
opls_146-89    H    0.75923988    0.31395999    0.00000000    0.20610000
opls_146-90    H    0.34646996    0.51432993    0.00000000    0.09870000
opls_146-91    H    0.48566990    0.83213996    0.00000000    0.09880000
opls_146-92    H    0.16786014    0.65353011    0.00000000    0.09870000
opls_146-93    H    0.65353004    0.48567007    0.00000000    0.09880000
opls_146-94    H    0.51433010    0.16786004    0.00000000    0.09870000
opls_146-95    H    0.83213986    0.34646989    0.00000000    0.09870000
opls_146-96    H    0.43666002    0.66627006    0.00000000    0.20610000
opls_146-97    H    0.33372997    0.77039015    0.00000000    0.20610000
opls_146-98    H    0.22961016    0.56334010    0.00000000    0.20620000
opls_146-99    H    0.56333998    0.33372994    0.00000000    0.20610000
opls_146-100    H    0.66627019    0.22961016    0.00000000    0.20610000
opls_146-101    H    0.77038984    0.43665990    0.00000000    0.20620000
opls_146-102    H    0.46633010    0.62569998    0.00000000    0.08150000
opls_146-103    H    0.37431000    0.84064006    0.00000000    0.08150000
opls_146-104    H    0.15936018    0.53367017    0.00000000    0.08150000
opls_146-105    H    0.53367002    0.37430992    0.00000000    0.08160000
opls_146-106    H    0.62569992    0.15935994    0.00000000    0.08150000
opls_146-107    H    0.84063997    0.46633014    0.00000000    0.08150000
opls_144-108    H    0.48850989    0.58632992    0.00000000    0.08860000
opls_144-109    H    0.41367000    0.90218012    0.00000000    0.08840000
opls_144-110    H    0.09782011    0.51148996    0.00000000    0.08840000
opls_144-111    H    0.51149011    0.41367008    0.00000000    0.08860000
opls_144-112    H    0.58633000    0.09781988    0.00000000    0.08870000
opls_144-113    H    0.90217989    0.48851004    0.00000000    0.08840000
opls_146-114    H    0.42379011    0.46952000    0.00000000    0.09750000
opls_146-115    H    0.53048010    0.95427002    0.00000000    0.09750000
opls_146-116    H    0.04573006    0.57620998    0.00000000    0.09750000
opls_146-117    H    0.57620989    0.53048000    0.00000000    0.09750000
opls_146-118    H    0.46951990    0.04572998    0.00000000    0.09750000
opls_146-119    H    0.95426994    0.42379002    0.00000000    0.09760000
opls_146-120    H    0.45352018    0.42387015    0.00000000    0.09780000
opls_146-121    H    0.57612998    0.02965013    0.00000000    0.09780000
opls_146-122    H    0.97034999    0.54648003    0.00000000    0.09780000
opls_146-123    H    0.54647997    0.57613016    0.00000000    0.09780000
opls_146-124    H    0.42387017    0.97035018    0.00000000    0.09780000
opls_146-125    H    0.02965001    0.45351997    0.00000000    0.09780000
