#======================================================================
# Crystal Data Generated By AuToFF
#----------------------------------------------------------------------

data_AuToFF_phase_1

_cell_length_a                         35.9083
_cell_length_b                         35.9083
_cell_length_c                         3.5199
_cell_angle_alpha                      90.00
_cell_angle_beta                       90.00
_cell_angle_gamma                      120.00
_symmetry_space_group_name_H-M_alt     'P 1'
_symmetry_space_group_IT_number        1

loop_
_space_group_symop_operation_xyz
   'x, y, z'

loop_
   _atom_site_label
   _atom_site_type_symbol
   _atom_site_fract_x
   _atom_site_fract_y
   _atom_site_fract_z
   _atom_site_charge
opls_185-0    H    0.08339001    0.64748002    0.57705048    0.07350000
opls_525-1    H    0.16616984    0.51324994    0.30478139    0.11430000
opls_526-2    H    0.95363012    0.52726007    0.76880025    0.11500000
opls_526-3    H    0.75795007    0.44563003    0.48363874    0.05390000
opls_526-4    H    0.77003000    0.33214985    0.36616097    0.12690000
opls_526-5    H    0.15912015    0.66296005    0.52342964    0.11710000
opls_185-6    H    0.06302014    0.62367007    0.12540981    0.07860000
opls_146-7    H    0.58723008    0.28828009    0.33264865    0.12140000
opls_185-8    H    0.35251997    0.43590996    0.57705048    0.07350000
opls_525-9    H    0.48674997    0.65292001    0.30478139    0.11430000
opls_526-10    H    0.47274002    0.42636997    0.76880025    0.11500000
opls_526-11    H    0.55436987    0.31231996    0.48363874    0.05390000
opls_526-12    H    0.66784981    0.43787989    0.36616097    0.12680000
opls_526-13    H    0.33704000    0.49616014    0.52342964    0.11720000
opls_185-14    H    0.37632992    0.43935011    0.12540981    0.07860000
opls_146-15    H    0.71171998    0.29895008    0.33264865    0.12140000
opls_185-16    H    0.56409002    0.91661002    0.57705048    0.07360000
opls_525-17    H    0.34707992    0.83383005    0.30478139    0.11430000
opls_526-18    H    0.57362987    0.04636997    0.76880025    0.11500000
opls_526-19    H    0.68768007    0.24205000    0.48363874    0.05390000
opls_526-20    H    0.56212003    0.22996993    0.36616097    0.12680000
opls_526-21    H    0.50384001    0.84088014    0.52342964    0.11710000
opls_185-22    H    0.56065010    0.93698014    0.12540981    0.07860000
opls_146-23    H    0.70105010    0.41277016    0.33264865    0.12140000
opls_185-24    H    0.91660999    0.35251998    0.42294952    0.07350000
opls_525-25    H    0.83383016    0.48675006    0.69521861    0.11430000
opls_526-26    H    0.04636988    0.47273993    0.23119975    0.11500000
opls_526-27    H    0.24204993    0.55436997    0.51636126    0.05390000
opls_526-28    H    0.22997000    0.66785015    0.63383903    0.12680000
opls_526-29    H    0.84087985    0.33703995    0.47657036    0.11710000
opls_185-30    H    0.93697986    0.37632993    0.87459019    0.07860000
opls_146-31    H    0.41276992    0.71171991    0.66735135    0.12140000
opls_185-32    H    0.64748003    0.56409004    0.42294952    0.07350000
opls_525-33    H    0.51325003    0.34707999    0.69521861    0.11430000
opls_526-34    H    0.52725998    0.57363003    0.23119975    0.11500000
opls_526-35    H    0.44563013    0.68768004    0.51636126    0.05390000
opls_526-36    H    0.33215019    0.56212011    0.63383903    0.12680000
opls_526-37    H    0.66296000    0.50383986    0.47657036    0.11710000
opls_185-38    H    0.62367008    0.56064989    0.87459019    0.07860000
opls_146-39    H    0.28828002    0.70104992    0.66735135    0.12140000
opls_185-40    H    0.43590998    0.08338998    0.42294952    0.07350000
opls_525-41    H    0.65292008    0.16616995    0.69521861    0.11430000
opls_526-42    H    0.42637013    0.95363003    0.23119975    0.11500000
opls_526-43    H    0.31231993    0.75795000    0.51636126    0.05390000
opls_526-44    H    0.43787997    0.77003007    0.63383903    0.12680000
opls_526-45    H    0.49615999    0.15911986    0.47657036    0.11710000
opls_185-46    H    0.43934990    0.06301986    0.87459019    0.07860000
opls_146-47    H    0.29894990    0.58722984    0.66735135    0.12140000
opls_523-48    C    0.22275999    0.57068993    0.49519020    -0.12330000
opls_522-49    C    0.18098006    0.54728998    0.37555044    -0.15550000
opls_521-50    C    0.15468996    0.56635003    0.36224040    0.20930000
opls_700-51    C    0.17330998    0.61103015    0.45393051    0.00820000
opls_523-52    C    0.21661012    0.63424005    0.56195062    -0.18420000
opls_700-53    C    0.24179004    0.61507002    0.58976960    0.07700000
opls_521-54    C    0.08712992    0.55768985    0.34179948    0.17240000
opls_700-55    C    0.04147990    0.52855985    0.38234893    -0.06030000
opls_166-56    C    0.01584998    0.54443991    0.53793005    0.20190000
opls_523-57    C    0.97454991    0.51600997    0.65641069    -0.21820000
opls_523-58    C    0.14586992    0.62880006    0.45970908    -0.16610000
opls_700-59    C    0.10259012    0.60231015    0.40280974    -0.02060000
opls_182-60    C    0.07062994    0.61743002    0.41311969    -0.03660000
opls_700-61    C    0.64055992    0.35244988    0.32462002    0.07860000
opls_145-62    C    0.62196987    0.30791993    0.31650899    -0.16390000
opls_523-63    C    0.42931006    0.65207010    0.49519020    -0.12330000
opls_522-64    C    0.45270989    0.63368985    0.37555044    -0.15550000
opls_521-65    C    0.43364996    0.58833990    0.36224040    0.20940000
opls_700-66    C    0.38896991    0.56227993    0.45393051    0.00820000
opls_523-67    C    0.36575994    0.58236997    0.56195062    -0.18420000
opls_700-68    C    0.38493016    0.62672015    0.58976960    0.07700000
opls_521-69    C    0.44230985    0.52943999    0.34179948    0.17240000
opls_700-70    C    0.47144011    0.51292001    0.38234893    -0.06030000
opls_166-71    C    0.45555998    0.47140992    0.53793005    0.20200000
opls_523-72    C    0.48398998    0.45854008    0.65641069    -0.21820000
opls_523-73    C    0.37119997    0.51706986    0.45970908    -0.16600000
opls_700-74    C    0.39769005    0.50028009    0.40280974    -0.02060000
opls_182-75    C    0.38257012    0.45320010    0.41311969    -0.03660000
opls_700-76    C    0.64755000    0.28810998    0.32462002    0.07860000
opls_145-77    C    0.69208013    0.31405000    0.31650899    -0.16390000
opls_523-78    C    0.34792995    0.77723997    0.49519020    -0.12320000
opls_522-79    C    0.36630989    0.81901986    0.37555044    -0.15550000
opls_521-80    C    0.41166009    0.84531007    0.36224040    0.20930000
opls_700-81    C    0.43771983    0.82668993    0.45393051    0.00820000
opls_523-82    C    0.41762994    0.78338998    0.56195062    -0.18420000
opls_700-83    C    0.37327996    0.75821015    0.58976960    0.07700000
opls_521-84    C    0.47055979    0.91286984    0.34179948    0.17240000
opls_700-85    C    0.48707999    0.95852014    0.38234893    -0.06030000
opls_166-86    C    0.52858988    0.98414985    0.53793005    0.20190000
opls_523-87    C    0.54145984    0.02544996    0.65641069    -0.21810000
opls_523-88    C    0.48293012    0.85413007    0.45970908    -0.16600000
opls_700-89    C    0.49971999    0.89741008    0.40280974    -0.02060000
opls_182-90    C    0.54679994    0.92936989    0.41311969    -0.03660000
opls_700-91    C    0.71189007    0.35944015    0.32462002    0.07870000
opls_145-92    C    0.68595000    0.37803007    0.31650899    -0.16390000
opls_523-93    C    0.77724001    0.42931007    0.50480980    -0.12320000
opls_522-94    C    0.81901994    0.45271002    0.62444956    -0.15550000
opls_521-95    C    0.84531004    0.43364997    0.63775960    0.20930000
opls_700-96    C    0.82669002    0.38896985    0.54606949    0.00820000
opls_523-97    C    0.78338988    0.36575995    0.43804938    -0.18420000
opls_700-98    C    0.75820996    0.38492998    0.41023040    0.07700000
opls_521-99    C    0.91287008    0.44231015    0.65820052    0.17250000
opls_700-100    C    0.95852010    0.47144015    0.61765107    -0.06030000
opls_166-101    C    0.98415002    0.45556009    0.46206995    0.20190000
opls_523-102    C    0.02545009    0.48399003    0.34358931    -0.21820000
opls_523-103    C    0.85413008    0.37119994    0.54029092    -0.16600000
opls_700-104    C    0.89740988    0.39768985    0.59719026    -0.02060000
opls_182-105    C    0.92937006    0.38256998    0.58688031    -0.03660000
opls_700-106    C    0.35944008    0.64755012    0.67537998    0.07860000
opls_145-107    C    0.37803013    0.69208007    0.68349101    -0.16390000
opls_523-108    C    0.57068994    0.34792990    0.50480980    -0.12330000
opls_522-109    C    0.54729011    0.36631015    0.62444956    -0.15550000
opls_521-110    C    0.56635004    0.41166010    0.63775960    0.20930000
opls_700-111    C    0.61103009    0.43772007    0.54606949    0.00820000
opls_523-112    C    0.63424006    0.41763003    0.43804938    -0.18420000
opls_700-113    C    0.61506984    0.37327985    0.41023040    0.07700000
opls_521-114    C    0.55768987    0.47056001    0.65820052    0.17240000
opls_700-115    C    0.52855989    0.48707999    0.61765107    -0.06020000
opls_166-116    C    0.54444002    0.52859008    0.46206995    0.20190000
opls_523-117    C    0.51601002    0.54145992    0.34358931    -0.21820000
opls_523-118    C    0.62880003    0.48293014    0.54029092    -0.16610000
opls_700-119    C    0.60230995    0.49971991    0.59719026    -0.02060000
opls_182-120    C    0.61742988    0.54679990    0.58688031    -0.03660000
opls_700-121    C    0.35245000    0.71189002    0.67537998    0.07860000
opls_145-122    C    0.30791987    0.68595000    0.68349101    -0.16390000
opls_523-123    C    0.65207005    0.22276003    0.50480980    -0.12330000
opls_522-124    C    0.63369011    0.18098014    0.62444956    -0.15540000
opls_521-125    C    0.58833991    0.15468993    0.63775960    0.20940000
opls_700-126    C    0.56228017    0.17331007    0.54606949    0.00820000
opls_523-127    C    0.58237006    0.21661002    0.43804938    -0.18400000
opls_700-128    C    0.62672004    0.24178985    0.41023040    0.07700000
opls_521-129    C    0.52944021    0.08713016    0.65820052    0.17240000
opls_700-130    C    0.51292001    0.04147986    0.61765107    -0.06030000
opls_166-131    C    0.47141012    0.01585015    0.46206995    0.20190000
opls_523-132    C    0.45854016    0.97455004    0.34358931    -0.21810000
opls_523-133    C    0.51706988    0.14586993    0.54029092    -0.16610000
opls_700-134    C    0.50028001    0.10258992    0.59719026    -0.02060000
opls_182-135    C    0.45320006    0.07063011    0.58688031    -0.03660000
opls_700-136    C    0.28810993    0.64055985    0.67537998    0.07860000
opls_145-137    C    0.31405000    0.62196993    0.68349101    -0.16390000
opls_520-138    N    0.11231985    0.54074990    0.30059945    -0.24350000
opls_520-139    N    0.45924994    0.57157006    0.30059945    -0.24360000
opls_520-140    N    0.42842993    0.88768004    0.30059945    -0.24350000
opls_520-141    N    0.88768015    0.45925010    0.69940055    -0.24360000
opls_520-142    N    0.54075006    0.42842994    0.69940055    -0.24350000
opls_520-143    N    0.57157007    0.11231996    0.69940055    -0.24360000
opls_179-144    O    0.03042002    0.58757006    0.59026109    -0.17610000
opls_179-145    O    0.41242990    0.44285007    0.59026109    -0.17610000
opls_179-146    O    0.55714981    0.96957987    0.59026109    -0.17600000
opls_179-147    O    0.96957998    0.41242994    0.40973891    -0.17600000
opls_179-148    O    0.58757010    0.55714993    0.40973891    -0.17610000
opls_179-149    O    0.44285019    0.03042013    0.40973891    -0.17610000
