#======================================================================
# Crystal Data Generated By AuToFF
#----------------------------------------------------------------------

data_AuToFF_phase_1

_cell_length_a                         25.2511
_cell_length_b                         25.2511
_cell_length_c                         6.5262
_cell_angle_alpha                      90.00
_cell_angle_beta                       90.00
_cell_angle_gamma                      120.00
_symmetry_space_group_name_H-M_alt     'P 1'
_symmetry_space_group_IT_number        1

loop_
_space_group_symop_operation_xyz
   'x, y, z'

loop_
   _atom_site_label
   _atom_site_type_symbol
   _atom_site_fract_x
   _atom_site_fract_y
   _atom_site_fract_z
   _atom_site_charge
opls_166-0    C    0.54884986    0.02654004    0.25000000    0.24230000
opls_700-1    C    0.15891987    0.91518006    0.25000000    0.03590000
opls_145-2    C    0.27098007    0.86008014    0.25000000    -0.20460000
opls_166-3    C    0.32635011    0.91514028    0.25000000    0.17870000
opls_166-4    C    0.43521993    0.02530994    0.25000000    0.35040000
opls_700-5    C    0.82518017    0.13669004    0.25000000    0.03730000
opls_145-6    C    0.71326980    0.19206981    0.25000000    -0.20460000
opls_166-7    C    0.65783991    0.13700008    0.25000000    0.15580000
opls_166-8    C    0.99156006    0.08228016    0.25000000    0.24230000
opls_700-9    C    0.10292026    0.80324025    0.25000000    0.03590000
opls_145-10    C    0.15798035    0.97035041    0.25000000    -0.20460000
opls_166-11    C    0.10291030    0.97072035    0.25000000    0.15310000
opls_166-12    C    0.99279016    0.96968002    0.25000000    0.37890000
opls_700-13    C    0.88137019    0.24867009    0.25000000    0.03800000
opls_145-14    C    0.82607984    0.08145979    0.25000000    -0.20450000
opls_166-15    C    0.88114975    0.08101988    0.25000000    0.15080000
opls_166-16    C    0.93579024    0.46914019    0.25000000    0.24200000
opls_700-17    C    0.21487037    0.85913036    0.25000000    0.03800000
opls_145-18    C    0.04777022    0.74716036    0.25000000    -0.20460000
opls_166-19    C    0.04739022    0.69173028    0.25000000    0.15180000
opls_166-20    C    0.04839986    0.58275003    0.25000000    0.35040000
opls_700-21    C    0.76937999    0.19295009    0.25000000    0.03530000
opls_145-22    C    0.93657004    0.30471020    0.25000000    -0.20460000
opls_166-23    C    0.93699004    0.36014028    0.25000000    0.14960000
opls_166-24    C    0.99265981    0.58265994    0.25000000    0.24240000
opls_700-25    C    0.88133021    0.19280010    0.25000000    0.03800000
opls_145-26    C    0.82619019    0.30480028    0.25000000    -0.21170000
opls_166-27    C    0.88127009    0.36014028    0.25000000    0.18370000
opls_166-28    C    0.99139033    0.46900026    0.25000000    0.35040000
opls_700-29    C    0.10282031    0.85904027    0.25000000    0.03530000
opls_145-30    C    0.15819004    0.74712012    0.25000000    -0.20460000
opls_166-31    C    0.10312017    0.69164019    0.25000000    0.15110000
opls_166-32    C    0.04841002    0.02541008    0.25000000    0.24230000
opls_700-33    C    0.76938028    0.13680024    0.25000000    0.03800000
opls_145-34    C    0.93650007    0.19185992    0.25000000    -0.20460000
opls_166-35    C    0.93687025    0.13678012    0.25000000    0.15310000
opls_166-36    C    0.93582003    0.02665985    0.25000000    0.37880000
opls_700-37    C    0.21480007    0.91523997    0.25000000    0.03600000
opls_145-38    C    0.04758003    0.85994021    0.25000000    -0.20460000
opls_166-39    C    0.04715013    0.91500035    0.25000000    0.14950000
opls_166-40    C    0.43537999    0.96968002    0.25000000    0.24200000
opls_700-41    C    0.82524999    0.24874006    0.25000000    0.03580000
opls_145-42    C    0.71331017    0.08165002    0.25000000    -0.20460000
opls_166-43    C    0.65790016    0.08129014    0.25000000    0.14960000
opls_166-44    C    0.54897005    0.08230989    0.25000000    0.35040000
opls_700-45    C    0.15907018    0.80325031    0.25000000    0.03610000
opls_145-46    C    0.27086991    0.97046015    0.25000000    -0.20460000
opls_166-47    C    0.32631022    0.97087034    0.25000000    0.15310000
opls_423-48    C    0.49198989    0.91186016    0.25000000    0.25250000
opls_700-49    C    0.49212003    0.97022008    0.25000000    -0.18180000
opls_423-50    C    0.10617013    0.14000994    0.24996016    0.25290000
opls_700-51    C    0.04789022    0.08175017    0.25001992    -0.17590000
opls_423-52    C    0.87797985    0.52574002    0.25000000    0.25380000
opls_700-53    C    0.93631012    0.52589001    0.25000000    -0.17480000
opls_166-54    C    0.05670998    0.50053022    0.75000000    0.24240000
opls_700-55    C    0.66685007    0.38922009    0.75000000    0.03800000
opls_145-56    C    0.77884987    0.33406987    0.75000000    -0.21170000
opls_166-57    C    0.83419987    0.38915013    0.75000000    0.18370000
opls_166-58    C    0.94305003    0.49925988    0.75000000    0.35040000
opls_700-59    C    0.33309990    0.61070994    0.75000000    0.03530000
opls_145-60    C    0.22115990    0.66607006    0.75000000    -0.20460000
opls_166-61    C    0.16569001    0.61100032    0.75000000    0.15060000
opls_166-62    C    0.49948008    0.55631013    0.75000000    0.24230000
opls_700-63    C    0.61085018    0.27727021    0.75000000    0.03440000
opls_145-64    C    0.66590992    0.44438998    0.75000000    -0.20460000
opls_166-65    C    0.61084015    0.44476998    0.75000000    0.15310000
opls_166-66    C    0.50071996    0.44372005    0.75000000    0.37880000
opls_700-67    C    0.38930010    0.72270006    0.75000000    0.03530000
opls_145-68    C    0.33398990    0.55548015    0.75000000    -0.20450000
opls_166-69    C    0.38906021    0.55504024    0.75000000    0.15070000
opls_166-70    C    0.44371015    0.94326025    0.75000000    0.24210000
opls_700-71    C    0.72277993    0.33314021    0.75000000    0.03560000
opls_145-72    C    0.55569978    0.22119993    0.75000000    -0.20460000
opls_166-73    C    0.55533013    0.16580003    0.75000000    0.15050000
opls_166-74    C    0.55633018    0.05686002    0.75000000    0.35040000
opls_700-75    C    0.27729984    0.66695994    0.75000000    0.03600000
opls_145-76    C    0.44451985    0.77877995    0.75000000    -0.20460000
opls_166-77    C    0.44493022    0.83422009    0.75000000    0.15180000
opls_166-78    C    0.50058008    0.05674981    0.75000000    0.24230000
opls_700-79    C    0.38924005    0.66682001    0.75000000    0.03800000
opls_145-80    C    0.33411992    0.77885997    0.75000000    -0.20460000
opls_166-81    C    0.38920002    0.83425027    0.75000000    0.15060000
opls_166-82    C    0.49933004    0.94312032    0.75000000    0.35040000
opls_700-83    C    0.61073998    0.33307984    0.75000000    0.03730000
opls_145-84    C    0.66610993    0.22116015    0.75000000    -0.20460000
opls_166-85    C    0.61104004    0.16573007    0.75000000    0.15580000
opls_166-86    C    0.55634010    0.49946017    0.75000000    0.24240000
opls_700-87    C    0.27729023    0.61081009    0.75000000    0.03800000
opls_145-88    C    0.44441026    0.66587022    0.75000000    -0.20450000
opls_166-89    C    0.44478008    0.61080003    0.75000000    0.15190000
opls_166-90    C    0.44374028    0.50069028    0.75000000    0.37880000
opls_700-91    C    0.72271980    0.38925988    0.75000000    0.03600000
opls_145-92    C    0.55550995    0.33397018    0.75000000    -0.20450000
opls_166-93    C    0.55506980    0.38903992    0.75000000    0.15080000
opls_166-94    C    0.94319995    0.44365009    0.75000000    0.24200000
opls_700-95    C    0.33318002    0.72275997    0.75000000    0.03800000
opls_145-96    C    0.22121005    0.55566033    0.75000000    -0.20460000
opls_166-97    C    0.16578008    0.55528032    0.75000000    0.15580000
opls_166-98    C    0.05679008    0.55626029    0.75000000    0.35050000
opls_700-99    C    0.66699993    0.27726015    0.75000000    0.03600000
opls_145-100    C    0.77878014    0.44448006    0.75000000    -0.20460000
opls_166-101    C    0.83422006    0.44489025    0.75000000    0.15050000
opls_423-102    C    0.99984005    0.38587001    0.75000000    0.25280000
opls_700-103    C    0.99995002    0.44418008    0.75000000    -0.18180000
opls_423-104    C    0.61406999    0.61407009    0.74998008    0.25300000
opls_700-105    C    0.55581012    0.55579019    0.75001073    -0.17570000
opls_423-106    C    0.38593010    0.99991997    0.75000000    0.25290000
opls_700-107    C    0.44425011    0.00002012    0.75000000    -0.18180000
opls_180-108    O    0.10491978    0.02717979    0.25000000    -0.20460000
opls_180-109    O    0.87926021    0.02458011    0.25000000    -0.20310000
opls_180-110    O    0.99092000    0.63737025    0.25000000    -0.20410000
opls_180-111    O    0.99345009    0.41457027    0.25000000    -0.19230000
opls_180-112    O    0.38074025    0.91316023    0.25000000    -0.20790000
opls_180-113    O    0.60334002    0.13886992    0.25000000    -0.19230000
opls_180-114    O    0.99331985    0.13878990    0.25000000    -0.20460000
opls_180-115    O    0.99071014    0.91311038    0.25000000    -0.20310000
opls_180-116    O    0.60355990    0.02481012    0.25000000    -0.20410000
opls_180-117    O    0.38076985    0.02734990    0.25000000    -0.19290000
opls_180-118    O    0.87926992    0.41451997    0.25000000    -0.20800000
opls_180-119    O    0.10499023    0.63713017    0.25000000    -0.19260000
opls_180-120    O    0.61285020    0.50122027    0.75000000    -0.20470000
opls_180-121    O    0.38716992    0.49861008    0.75000000    -0.20310000
opls_180-122    O    0.49885016    0.11146012    0.75000000    -0.20410000
opls_180-123    O    0.50139004    0.88867020    0.75000000    -0.19250000
opls_180-124    O    0.88857005    0.38714995    0.75000000    -0.21000000
opls_180-125    O    0.11117995    0.61286011    0.75000000    -0.19250000
opls_180-126    O    0.50123019    0.61282032    0.75000000    -0.20470000
opls_180-127    O    0.49864010    0.38714995    0.75000000    -0.20310000
opls_180-128    O    0.11143032    0.49880031    0.75000000    -0.20410000
opls_180-129    O    0.88863009    0.50133002    0.75000000    -0.19230000
opls_180-130    O    0.38718995    0.88862996    0.75000000    -0.20790000
opls_180-131    O    0.61290008    0.11123011    0.75000000    -0.19220000
opls_520-132    N    0.49207018    0.08166008    0.25000000    -0.31850000
opls_520-133    N    0.93645027    0.97031016    0.25000000    -0.31890000
opls_520-134    N    0.04775005    0.52584016    0.25000000    -0.31840000
opls_262-135    N    0.83202991    0.52547022    0.25000000    -0.28380000
opls_262-136    N    0.49181023    0.86595034    0.25000000    -0.28380000
opls_262-137    N    0.15199012    0.18583013    0.25001992    -0.28370000
opls_520-138    N    0.99989011    0.55559996    0.75000000    -0.31920000
opls_520-139    N    0.44437017    0.44435019    0.75000000    -0.31890000
opls_520-140    N    0.55569016    0.99996022    0.75000000    -0.31840000
opls_262-141    N    0.34003996    0.99978004    0.75000000    -0.28380000
opls_262-142    N    0.99961995    0.33993001    0.75000000    -0.28380000
opls_262-143    N    0.65988997    0.65989028    0.75001073    -0.28380000
opls_146-144    H    0.27073020    0.81481007    0.25000000    0.04490000
opls_146-145    H    0.71355983    0.23736001    0.25000000    0.04480000
opls_146-146    H    0.20274006    0.01587016    0.25000000    0.04480000
opls_146-147    H    0.78130021    0.03595010    0.25000000    0.04480000
opls_146-148    H    0.00225005    0.74640995    0.25000000    0.04480000
opls_146-149    H    0.98205025    0.30539018    0.25000000    0.04480000
opls_146-150    H    0.78094005    0.30458993    0.25000000    0.04480000
opls_146-151    H    0.20350008    0.74745028    0.25000000    0.04480000
opls_146-152    H    0.98202015    0.23662012    0.25000000    0.04480000
opls_146-153    H    0.00207032    0.81516035    0.25000000    0.04480000
opls_146-154    H    0.71255980    0.03612981    0.25000000    0.04480000
opls_146-155    H    0.27156004    0.01595018    0.25000000    0.04480000
opls_146-156    H    0.77862997    0.28880986    0.75000000    0.04480000
opls_146-157    H    0.22148986    0.71137991    0.75000000    0.04480000
opls_146-158    H    0.71067025    0.48991018    0.75000000    0.04480000
opls_146-159    H    0.28920993    0.50998007    0.75000000    0.04480000
opls_146-160    H    0.51017984    0.22044998    0.75000000    0.04480000
opls_146-161    H    0.49001011    0.77948006    0.75000000    0.04480000
opls_146-162    H    0.28885012    0.77861029    0.75000000    0.04480000
opls_146-163    H    0.71139986    0.22145007    0.75000000    0.04480000
opls_146-164    H    0.48994001    0.71062996    0.75000000    0.04480000
opls_146-165    H    0.51000990    0.28918987    0.75000000    0.04480000
opls_146-166    H    0.22046008    0.51014012    0.75000000    0.04480000
opls_146-167    H    0.77946010    0.48996003    0.75000000    0.04480000
