#======================================================================
# Crystal Data Generated By AuToFF
#----------------------------------------------------------------------

data_AuToFF_phase_1

_cell_length_a                         28.9836
_cell_length_b                         25.0711
_cell_length_c                         29.4508
_cell_angle_alpha                      90.00
_cell_angle_beta                       91.56
_cell_angle_gamma                      90.00
_symmetry_space_group_name_H-M_alt     'P 1'
_symmetry_space_group_IT_number        1

loop_
_space_group_symop_operation_xyz
   'x, y, z'

loop_
   _atom_site_label
   _atom_site_type_symbol
   _atom_site_fract_x
   _atom_site_fract_y
   _atom_site_fract_z
   _atom_site_charge
opls_542-0    N    0.26820025    0.50579991    0.69450009    -0.36770000
opls_542-1    N    0.67850001    0.41110003    0.66160019    -0.28700000
opls_750-2    N    0.41620011    0.43570007    0.70550012    -0.30490000
opls_542-3    N    0.18450000    0.50560007    0.70150011    -0.35640000
opls_542-4    N    0.77630007    0.41089980    0.76040008    -0.30100000
opls_750-5    N    0.03860027    0.43540012    0.71489994    -0.31600000
opls_542-6    N    0.73340007    0.49600018    0.16980011    -0.37430000
opls_542-7    N    0.67920028    0.41050014    0.75849994    -0.25940000
opls_750-8    N    0.72970016    0.42439981    0.02200007    -0.29750000
opls_542-9    N    0.73589998    0.49350009    0.25380003    -0.35760000
opls_542-10    N    0.77560014    0.41129986    0.66359985    -0.29110000
opls_750-11    N    0.72759996    0.42479987    0.40010007    -0.29230000
opls_542-12    N    0.73180010    0.00579991    0.30549991    -0.36770000
opls_542-13    N    0.32150000    0.91110003    0.33840015    -0.28690000
opls_750-14    N    0.58379989    0.93570007    0.29449988    -0.30520000
opls_542-15    N    0.81550000    0.00560007    0.29849989    -0.35650000
opls_542-16    N    0.22369993    0.91089980    0.23959992    -0.30090000
opls_750-17    N    0.96140008    0.93540012    0.28510006    -0.31600000
opls_542-18    N    0.26660028    0.99600018    0.83019989    -0.37430000
opls_542-19    N    0.32080007    0.91050014    0.24150006    -0.25940000
opls_750-20    N    0.27030019    0.92439981    0.97799993    -0.29750000
opls_542-21    N    0.26410002    0.99350009    0.74619997    -0.35750000
opls_542-22    N    0.22440021    0.91129986    0.33640015    -0.29110000
opls_750-23    N    0.27240004    0.92479987    0.59989993    -0.29230000
opls_543-24    C    0.26850012    0.45009992    0.70889993    0.20540000
opls_543-25    C    0.31460023    0.52209995    0.69280001    0.23870000
opls_700-26    C    0.34220002    0.47870018    0.70700012    -0.03590000
opls_700-27    C    0.31409996    0.43449988    0.71839995    0.06640000
opls_142-28    C    0.39249994    0.48019991    0.71030007    0.03070000
opls_135-29    C    0.32889995    0.57420017    0.67670010    -0.44210000
opls_701-30    C    0.32950004    0.38749995    0.74330017    -0.40030000
opls_716-31    C    0.64280001    0.41350001    0.59289991    -0.17880000
opls_716-32    C    0.61020003    0.41439985    0.62499987    -0.17880000
opls_507-33    C    0.63290022    0.41299983    0.66690014    0.20680000
opls_507-34    C    0.68440003    0.41150009    0.61610005    0.20470000
opls_700-35    C    0.61070018    0.41409990    0.70869986    -0.08660000
opls_700-36    C    0.56039999    0.41989980    0.70770019    0.07540000
opls_145-37    C    0.53240013    0.37380011    0.71180007    -0.12370000
opls_145-38    C    0.48500019    0.37989996    0.71089993    -0.16080000
opls_145-39    C    0.46510019    0.43190008    0.70639992    0.21850000
opls_145-40    C    0.49350027    0.47809988    0.70170018    -0.15620000
opls_145-41    C    0.54080014    0.47200003    0.70250011    -0.12370000
opls_145-42    C    0.74820020    0.31679982    0.23440017    -0.12240000
opls_145-43    C    0.74140015    0.26009988    0.23440017    -0.15390000
opls_543-44    C    0.18560012    0.45049998    0.70820019    0.21290000
opls_543-45    C    0.14040017    0.52150005    0.69939990    0.24200000
opls_700-46    C    0.11230024    0.47599986    0.70280004    -0.03640000
opls_700-47    C    0.14070022    0.43039994    0.70730006    0.05760000
opls_142-48    C    0.06199999    0.47639992    0.69980003    0.08380000
opls_135-49    C    0.12520006    0.58030003    0.69400008    -0.42090000
opls_701-50    C    0.12510018    0.37200003    0.70050010    -0.40330000
opls_716-51    C    0.81210012    0.41369984    0.82910002    -0.17870000
opls_716-52    C    0.84470010    0.41490002    0.79700006    -0.17840000
opls_507-53    C    0.82200026    0.41309994    0.75520000    0.20690000
opls_507-54    C    0.77050010    0.41150009    0.80589988    0.20670000
opls_700-55    C    0.84419995    0.41420002    0.71339994    -0.05850000
opls_700-56    C    0.89450014    0.41989980    0.71419987    0.07510000
opls_145-57    C    0.92250023    0.37359988    0.71860002    -0.11870000
opls_145-58    C    0.96990015    0.37949990    0.71889996    -0.16030000
opls_145-59    C    0.98980025    0.43150001    0.71450015    0.21850000
opls_145-60    C    0.96139996    0.47800017    0.71100014    -0.15850000
opls_145-61    C    0.91410009    0.47210015    0.71060000    -0.11980000
opls_145-62    C    0.67960013    0.32829992    0.18769996    -0.08510000
opls_145-63    C    0.67300019    0.27159997    0.18769996    -0.15390000
opls_543-64    C    0.72939987    0.43780010    0.16989998    0.19320000
opls_543-65    C    0.73930007    0.51129986    0.12359990    0.24470000
opls_700-66    C    0.73950014    0.46450016    0.09679989    -0.02670000
opls_700-67    C    0.73490005    0.41859990    0.12520011    0.05990000
opls_142-68    C    0.74379984    0.46529989    0.04689994    0.08500000
opls_135-69    C    0.74399988    0.56599990    0.10759985    -0.44250000
opls_701-70    C    0.74340000    0.36349981    0.11140014    -0.39890000
opls_716-71    C    0.61130004    0.41299983    0.79229998    -0.17880000
opls_716-72    C    0.64440002    0.41199987    0.82580008    -0.17880000
opls_507-73    C    0.68570003    0.41069997    0.80420015    0.20680000
opls_507-74    C    0.63350011    0.41209999    0.75140006    0.20680000
opls_700-75    C    0.72830027    0.41110003    0.82750015    -0.05800000
opls_700-76    C    0.72860008    0.41470019    0.87779990    0.06960000
opls_145-77    C    0.72620015    0.36709997    0.90440018    -0.08330000
opls_145-78    C    0.72650023    0.37110019    0.95180012    -0.14960000
opls_145-79    C    0.72980026    0.42239989    0.97319999    0.20110000
opls_145-80    C    0.73150014    0.47019995    0.94619990    -0.14950000
opls_145-81    C    0.73110001    0.46620013    0.89890017    -0.10410000
opls_145-82    C    0.24840022    0.32570011    0.69959996    -0.08340000
opls_145-83    C    0.24870005    0.27040018    0.71239994    -0.12420000
opls_543-84    C    0.72609992    0.43899988    0.25259996    0.21090000
opls_543-85    C    0.73690001    0.50980013    0.29769996    0.23570000
opls_700-86    C    0.72619989    0.46610001    0.32549998    -0.02290000
opls_700-87    C    0.71810005    0.42099988    0.29719996    0.06290000
opls_142-88    C    0.72209996    0.46839987    0.37530006    0.09180000
opls_135-89    C    0.74810021    0.56739991    0.31299994    -0.42090000
opls_701-90    C    0.69510021    0.36900016    0.31190007    -0.40330000
opls_716-91    C    0.84350004    0.41190016    0.62980016    -0.17830000
opls_716-92    C    0.81050011    0.41080008    0.59639992    -0.17880000
opls_507-93    C    0.76910005    0.41080008    0.61789999    0.20670000
opls_507-94    C    0.82140003    0.41220010    0.67070008    0.20680000
opls_700-95    C    0.72660021    0.41139998    0.59459998    -0.05950000
opls_700-96    C    0.72640010    0.41509986    0.54429990    0.06800000
opls_145-97    C    0.72020000    0.36809992    0.51740002    -0.10410000
opls_145-98    C    0.72059997    0.37200003    0.47000008    -0.12410000
opls_145-99    C    0.72670009    0.42290007    0.44890015    0.20720000
opls_145-100    C    0.73340013    0.47000012    0.47609996    -0.14950000
opls_145-101    C    0.73300016    0.46599990    0.52340004    -0.10230000
opls_145-102    C    0.20600014    0.34820012    0.76670003    -0.10410000
opls_145-103    C    0.20640003    0.29299991    0.77940014    -0.12270000
opls_700-104    C    0.72379990    0.40849983    0.21120003    -0.07050000
opls_700-105    C    0.71719996    0.35149993    0.21120003    0.08300000
opls_263-106    C    0.70390002    0.23740003    0.21099997    0.14660000
opls_700-107    C    0.22720002    0.42080004    0.71430008    -0.06430000
opls_700-108    C    0.22720001    0.36520017    0.72680012    0.07510000
opls_263-109    C    0.22780001    0.25410014    0.75230019    0.14650000
opls_543-110    C    0.73149988    0.95009992    0.29110007    0.20540000
opls_543-111    C    0.68540011    0.02209995    0.30719999    0.23870000
opls_700-112    C    0.65779998    0.97870018    0.29299988    -0.03590000
opls_700-113    C    0.68590004    0.93449988    0.28160005    0.06640000
opls_142-114    C    0.60750006    0.98019991    0.28969993    0.03070000
opls_135-115    C    0.67110005    0.07420017    0.32329990    -0.44210000
opls_701-116    C    0.67049997    0.88749995    0.25670017    -0.40020000
opls_716-117    C    0.35719999    0.91350001    0.40710009    -0.17880000
opls_716-118    C    0.38979997    0.91439985    0.37500013    -0.17880000
opls_507-119    C    0.36710012    0.91299983    0.33309986    0.20680000
opls_507-120    C    0.31559997    0.91150009    0.38389995    0.20470000
opls_700-121    C    0.38930016    0.91409990    0.29130014    -0.08660000
opls_700-122    C    0.43960002    0.91989980    0.29230015    0.07540000
opls_145-123    C    0.46759987    0.87380011    0.28819993    -0.12370000
opls_145-124    C    0.51500015    0.87989996    0.28910007    -0.16080000
opls_145-125    C    0.53490015    0.93190008    0.29360008    0.21850000
opls_145-126    C    0.50650008    0.97809988    0.29830016    -0.15620000
opls_145-127    C    0.45920020    0.97200003    0.29749989    -0.12370000
opls_145-128    C    0.25180015    0.81679982    0.76560017    -0.12240000
opls_145-129    C    0.25860021    0.76009988    0.76560017    -0.15390000
opls_543-130    C    0.81439989    0.95049998    0.29180014    0.21300000
opls_543-131    C    0.85960017    0.02150005    0.30060010    0.24200000
opls_700-132    C    0.88770010    0.97599986    0.29719996    -0.03640000
opls_700-133    C    0.85930013    0.93039994    0.29269994    0.05760000
opls_142-134    C    0.93800001    0.97639992    0.30019997    0.08380000
opls_135-135    C    0.87479994    0.08030003    0.30599992    -0.42080000
opls_701-136    C    0.87490017    0.87200003    0.29949990    -0.40330000
opls_716-137    C    0.18789988    0.91369984    0.17089998    -0.17870000
opls_716-138    C    0.15529990    0.91490002    0.20299994    -0.17840000
opls_507-139    C    0.17800009    0.91309994    0.24480000    0.20690000
opls_507-140    C    0.22949990    0.91150009    0.19410012    0.20670000
opls_700-141    C    0.15580005    0.91420002    0.28660006    -0.05840000
opls_700-142    C    0.10550021    0.91989980    0.28580013    0.07510000
opls_145-143    C    0.07750011    0.87359988    0.28139998    -0.11870000
opls_145-144    C    0.03010020    0.87949990    0.28110004    -0.16030000
opls_145-145    C    0.01020009    0.93150001    0.28549985    0.21850000
opls_145-146    C    0.03860004    0.97800017    0.28899986    -0.15850000
opls_145-147    C    0.08589991    0.97210015    0.28940000    -0.11980000
opls_145-148    C    0.32040022    0.82829992    0.81230004    -0.08510000
opls_145-149    C    0.32700016    0.77159997    0.81230004    -0.15390000
opls_543-150    C    0.27060013    0.93780010    0.83010002    0.19320000
opls_543-151    C    0.26070027    0.01129986    0.87640010    0.24470000
opls_700-152    C    0.26050020    0.96450016    0.90320011    -0.02670000
opls_700-153    C    0.26510030    0.91859990    0.87479989    0.05990000
opls_142-154    C    0.25620016    0.96529989    0.95310006    0.08500000
opls_135-155    C    0.25600012    0.06599990    0.89240015    -0.44250000
opls_701-156    C    0.25660000    0.86349981    0.88859986    -0.39890000
opls_716-157    C    0.38869996    0.91299983    0.20770002    -0.17880000
opls_716-158    C    0.35559998    0.91199987    0.17419992    -0.17880000
opls_507-159    C    0.31429997    0.91069997    0.19579985    0.20680000
opls_507-160    C    0.36649989    0.91209999    0.24859994    0.20680000
opls_700-161    C    0.27170007    0.91110003    0.17249985    -0.05800000
opls_700-162    C    0.27139992    0.91470019    0.12220010    0.06960000
opls_145-163    C    0.27379986    0.86709997    0.09560016    -0.08330000
opls_145-164    C    0.27350012    0.87110019    0.04819988    -0.14960000
opls_145-165    C    0.27020008    0.92239989    0.02680001    0.20110000
opls_145-166    C    0.26849986    0.97019995    0.05380010    -0.14940000
opls_145-167    C    0.26890000    0.96620013    0.10110017    -0.10410000
opls_145-168    C    0.75160012    0.82570011    0.30040004    -0.08340000
opls_145-169    C    0.75129995    0.77040018    0.28760006    -0.12420000
opls_543-170    C    0.27390008    0.93899988    0.74740004    0.21090000
opls_543-171    C    0.26309999    0.00980013    0.70230004    0.23570000
opls_700-172    C    0.27380011    0.96610001    0.67450002    -0.02290000
opls_700-173    C    0.28189995    0.92099988    0.70280004    0.06300000
opls_142-174    C    0.27790004    0.96839987    0.62469994    0.09180000
opls_135-175    C    0.25190014    0.06739991    0.68700006    -0.42080000
opls_701-176    C    0.30490013    0.86900016    0.68809993    -0.40330000
opls_716-177    C    0.15649997    0.91190016    0.37020018    -0.17830000
opls_716-178    C    0.18950023    0.91080008    0.40360008    -0.17880000
opls_507-179    C    0.23089995    0.91080008    0.38210001    0.20680000
opls_507-180    C    0.17859997    0.91220010    0.32929992    0.20680000
opls_700-181    C    0.27340014    0.91139998    0.40540002    -0.05950000
opls_700-182    C    0.27359990    0.91509986    0.45570010    0.06800000
opls_145-183    C    0.27980000    0.86809992    0.48259998    -0.10410000
opls_145-184    C    0.27940003    0.87200003    0.52999992    -0.12410000
opls_145-185    C    0.27329991    0.92290007    0.55109985    0.20720000
opls_145-186    C    0.26660021    0.97000012    0.52390004    -0.14950000
opls_145-187    C    0.26700018    0.96599990    0.47659996    -0.10230000
opls_145-188    C    0.79400020    0.84820012    0.23329997    -0.10410000
opls_145-189    C    0.79359997    0.79299991    0.22059986    -0.12270000
opls_700-190    C    0.27620010    0.90849983    0.78879997    -0.07050000
opls_700-191    C    0.28280004    0.85149993    0.78879997    0.08300000
opls_263-192    C    0.29609998    0.73740003    0.78900003    0.14660000
opls_700-193    C    0.77279998    0.92080004    0.28569992    -0.06430000
opls_700-194    C    0.77279999    0.86520017    0.27319988    0.07510000
opls_263-195    C    0.77220000    0.75410014    0.24770015    0.14650000
opls_144-196    H    0.40890006    0.51929991    0.71619988    0.07150000
opls_140-197    H    0.36630001    0.57739987    0.67450002    0.14570000
opls_140-198    H    0.31679995    0.60679986    0.69970017    0.11150000
opls_140-199    H    0.31390018    0.58129998    0.64219999    0.18890000
opls_702-200    H    0.33640019    0.35310018    0.71969989    0.10440000
opls_702-201    H    0.30470016    0.37499990    0.76899997    0.12450000
opls_702-202    H    0.36120023    0.39660007    0.76329989    0.14210000
opls_547-203    H    0.57379996    0.41609981    0.61830012    0.27250000
opls_146-204    H    0.54719998    0.33330009    0.71560001    0.12980000
opls_146-205    H    0.46369996    0.34389995    0.71410001    0.06850000
opls_146-206    H    0.47970026    0.51889985    0.69670016    0.13000000
opls_146-207    H    0.56210002    0.50789993    0.69889989    0.11780000
opls_146-208    H    0.77760007    0.33370016    0.25239989    0.12230000
opls_146-209    H    0.76540007    0.23379987    0.25250009    0.12210000
opls_547-210    H    0.63640023    0.41470019    0.55650000    0.12620000
opls_144-211    H    0.04499995    0.51120015    0.68429999    0.08540000
opls_140-212    H    0.08790006    0.58509998    0.69639989    0.15570000
opls_140-213    H    0.13560019    0.59609989    0.66049998    0.12450000
opls_140-214    H    0.14139995    0.60560007    0.72119989    0.12010000
opls_702-215    H    0.11600006    0.35370008    0.73349986    0.12440000
opls_702-216    H    0.15130006    0.34699993    0.68400005    0.19010000
opls_702-217    H    0.09490004    0.37049990    0.67709990    0.13740000
opls_547-218    H    0.88100012    0.41700005    0.80370015    0.12110000
opls_146-219    H    0.90770022    0.33309986    0.72169990    0.13010000
opls_146-220    H    0.99130027    0.34349989    0.72219990    0.07620000
opls_146-221    H    0.97530018    0.51899996    0.70919986    0.13390000
opls_146-222    H    0.89269998    0.50810016    0.70770019    0.08590000
opls_146-223    H    0.65509993    0.35429997    0.16989998    0.12110000
opls_146-224    H    0.64390014    0.25429997    0.16960004    0.11070000
opls_547-225    H    0.81840019    0.41490002    0.86540006    0.13230000
opls_144-226    H    0.75749993    0.50169997    0.03150010    0.07930000
opls_140-227    H    0.71659989    0.57510002    0.08199991    0.11430000
opls_140-228    H    0.77769989    0.57100008    0.09190008    0.13350000
opls_140-229    H    0.74149992    0.59630012    0.13550007    0.12420000
opls_702-230    H    0.71089999    0.34249993    0.10259984    0.11450000
opls_702-231    H    0.76279997    0.34060013    0.13800008    0.18580000
opls_702-232    H    0.76539989    0.36230002    0.08140005    0.11400000
opls_547-233    H    0.63860014    0.41269988    0.86190005    0.13400000
opls_146-234    H    0.72400019    0.32710013    0.88840013    0.05680000
opls_146-235    H    0.72460004    0.33409982    0.97199991    0.14140000
opls_146-236    H    0.73230031    0.51059985    0.96119995    0.13320000
opls_146-237    H    0.73240019    0.50320010    0.87860017    0.13400000
opls_146-238    H    0.26440015    0.33769998    0.66840014    0.12500000
opls_146-239    H    0.26500007    0.24039990    0.69130001    0.11920000
opls_547-240    H    0.57500000    0.41500014    0.79759992    0.27250000
opls_144-241    H    0.71500017    0.50749987    0.39080011    0.06730000
opls_140-242    H    0.75080000    0.57089996    0.35050005    0.18890000
opls_140-243    H    0.72129989    0.59600018    0.30030017    0.12350000
opls_140-244    H    0.78140005    0.57979985    0.29949990    0.13370000
opls_702-245    H    0.72089989    0.33769998    0.32149996    0.11550000
opls_702-246    H    0.67149993    0.35319990    0.28510006    0.11450000
opls_702-247    H    0.67380001    0.37690010    0.34170009    0.11380000
opls_547-248    H    0.81630000    0.41040002    0.56029995    0.13380000
opls_146-249    H    0.71540013    0.32850015    0.53320000    0.12980000
opls_146-250    H    0.71599991    0.33540012    0.44959988    0.09240000
opls_146-251    H    0.73989996    0.50980013    0.46129998    0.13430000
opls_146-252    H    0.73820022    0.50250009    0.54390010    0.14080000
opls_146-253    H    0.18990025    0.37790005    0.78850003    0.07510000
opls_146-254    H    0.19040009    0.28049986    0.81039990    0.13520000
opls_547-255    H    0.87980007    0.41239993    0.62449987    0.12150000
opls_144-256    H    0.59109994    0.01929991    0.28380012    0.07140000
opls_140-257    H    0.63369999    0.07739987    0.32549998    0.14570000
opls_140-258    H    0.68320006    0.10679986    0.30030017    0.11150000
opls_140-259    H    0.68610016    0.08129998    0.35780001    0.18890000
opls_702-260    H    0.66360016    0.85310018    0.28030011    0.10440000
opls_702-261    H    0.69530019    0.87499990    0.23100003    0.14930000
opls_702-262    H    0.63880012    0.89660007    0.23670011    0.14210000
opls_547-263    H    0.42620004    0.91609981    0.38169988    0.27250000
opls_146-264    H    0.45280002    0.83330009    0.28439999    0.12980000
opls_146-265    H    0.53630004    0.84389995    0.28589999    0.06850000
opls_146-266    H    0.52030009    0.01889985    0.30330018    0.13000000
opls_146-267    H    0.43789998    0.00789993    0.30110011    0.11780000
opls_146-268    H    0.22240028    0.83370016    0.74760011    0.12230000
opls_146-269    H    0.23460027    0.73379987    0.74749991    0.12210000
opls_547-270    H    0.36360012    0.91470019    0.44350000    0.12620000
opls_144-271    H    0.95500005    0.01120015    0.31570001    0.08540000
opls_140-272    H    0.91209994    0.08509998    0.30360011    0.15570000
opls_140-273    H    0.86440015    0.09609989    0.33950002    0.12450000
opls_140-274    H    0.85860005    0.10560007    0.27880011    0.12010000
opls_702-275    H    0.88399994    0.85370008    0.26650014    0.12440000
opls_702-276    H    0.84869994    0.84699993    0.31599995    0.19010000
opls_702-277    H    0.90509996    0.87049990    0.32290010    0.13750000
opls_547-278    H    0.11899988    0.91700005    0.19629985    0.12110000
opls_146-279    H    0.09230013    0.83309986    0.27830010    0.13010000
opls_146-280    H    0.00870008    0.84349989    0.27780010    0.07620000
opls_146-281    H    0.02470017    0.01899996    0.29080014    0.13390000
opls_146-282    H    0.10730003    0.00810016    0.29230015    0.08590000
opls_146-283    H    0.34490007    0.85429997    0.83010002    0.12120000
opls_146-284    H    0.35610021    0.75429997    0.83039996    0.11070000
opls_547-285    H    0.18160016    0.91490002    0.13459994    0.13230000
opls_144-286    H    0.24250007    0.00169997    0.96849990    0.07930000
opls_140-287    H    0.28340011    0.07510002    0.91800009    0.11440000
opls_140-288    H    0.22230011    0.07100008    0.90809992    0.13350000
opls_140-289    H    0.25850008    0.09630012    0.86449993    0.12420000
opls_702-290    H    0.28910001    0.84249993    0.89740016    0.11450000
opls_702-291    H    0.23720003    0.84060013    0.86199992    0.18580000
opls_702-292    H    0.23460011    0.86230002    0.91859995    0.11400000
opls_547-293    H    0.36139986    0.91269988    0.13809995    0.13400000
opls_146-294    H    0.27600015    0.82710013    0.11159987    0.05680000
opls_146-295    H    0.27539996    0.83409982    0.02800009    0.14140000
opls_146-296    H    0.26770003    0.01059985    0.03880005    0.13320000
opls_146-297    H    0.26760016    0.00320010    0.12140017    0.13400000
opls_146-298    H    0.73560020    0.83769998    0.33159986    0.12500000
opls_146-299    H    0.73499993    0.74039990    0.30869999    0.11920000
opls_547-300    H    0.42500000    0.91500014    0.20240008    0.27250000
opls_144-301    H    0.28500018    0.00749987    0.60919989    0.06730000
opls_140-302    H    0.24920000    0.07089996    0.64949995    0.18900000
opls_140-303    H    0.27870012    0.09600018    0.69970017    0.12350000
opls_140-304    H    0.21859995    0.07979985    0.70050010    0.13370000
opls_702-305    H    0.27910011    0.83769998    0.67850004    0.11550000
opls_702-306    H    0.32850007    0.85319990    0.71489994    0.11450000
opls_702-307    H    0.32619999    0.87690010    0.65829991    0.11380000
opls_547-308    H    0.18370000    0.91040002    0.43970005    0.13370000
opls_146-309    H    0.28460021    0.82850015    0.46680000    0.12980000
opls_146-310    H    0.28400009    0.83540012    0.55040012    0.09240000
opls_146-311    H    0.26010004    0.00980013    0.53870002    0.13430000
opls_146-312    H    0.26180013    0.00250009    0.45609990    0.14080000
opls_146-313    H    0.81010009    0.87790005    0.21149997    0.07510000
opls_146-314    H    0.80959991    0.78049986    0.18960010    0.13520000
opls_547-315    H    0.12019993    0.91239993    0.37550013    0.12150000
MOF2_F_-316    F    0.78550000    0.55310018    0.21240011    -0.60190000
MOF2_F_-317    F    0.70799998    0.57289987    0.21299997    -0.60900000
MOF2_F_-318    F    0.22159996    0.56890005    0.65149995    -0.60030000
MOF2_F_-319    F    0.23010000    0.58129998    0.72969992    -0.60900000
MOF2_F_-320    F    0.21450000    0.05310018    0.78759989    -0.60200000
MOF2_F_-321    F    0.29200002    0.07289987    0.78700003    -0.60900000
MOF2_F_-322    F    0.77840004    0.06890005    0.34850005    -0.60030000
MOF2_F_-323    F    0.76990000    0.08129998    0.27030008    -0.60900000
MOF2_B_3-324    B    0.74100000    0.53020011    0.21229990    0.74860000
MOF2_B_3-325    B    0.22610023    0.54179992    0.69420015    0.74890000
MOF2_B_3-326    B    0.25900000    0.03020011    0.78770010    0.74870000
MOF2_B_3-327    B    0.77390012    0.04179992    0.30579985    0.74880000
opls_264-328    Cl    0.69560015    0.16629984    0.21079990    -0.07650000
opls_264-329    Cl    0.22850016    0.18499986    0.76860018    -0.07650000
opls_264-330    Cl    0.30440020    0.66629984    0.78920010    -0.07650000
opls_264-331    Cl    0.77150019    0.68499986    0.23140016    -0.07650000
