#======================================================================
# Crystal Data Generated By AuToFF
#----------------------------------------------------------------------

data_AuToFF_phase_1

_cell_length_a                         32.2005
_cell_length_b                         32.2005
_cell_length_c                         3.8282
_cell_angle_alpha                      90.00
_cell_angle_beta                       90.00
_cell_angle_gamma                      120.00
_symmetry_space_group_name_H-M_alt     'P 1'
_symmetry_space_group_IT_number        1

loop_
_space_group_symop_operation_xyz
   'x, y, z'

loop_
   _atom_site_label
   _atom_site_type_symbol
   _atom_site_fract_x
   _atom_site_fract_y
   _atom_site_fract_z
   _atom_site_charge
opls_750-0    N    0.57888998    0.66917015    0.50001045    -0.31220000
opls_750-1    N    0.65621993    0.57306003    0.50001045    -0.31590000
opls_750-2    N    0.33082997    0.90972999    0.50001045    -0.31220000
opls_750-3    N    0.42693991    0.08316010    0.50001045    -0.31620000
opls_750-4    N    0.09027980    0.42110989    0.50001045    -0.31220000
opls_750-5    N    0.91683986    0.34377986    0.50001045    -0.31610000
opls_520-6    N    0.28864985    0.65915991    0.50001045    -0.48390000
opls_520-7    N    0.67512989    0.29676994    0.50001045    -0.48400000
opls_520-8    N    0.34083986    0.62947991    0.50001045    -0.48320000
opls_520-9    N    0.70323014    0.37836010    0.50001045    -0.48680000
opls_520-10    N    0.37052018    0.71135014    0.50001045    -0.48680000
opls_520-11    N    0.62163996    0.32486996    0.50001045    -0.48680000
opls_142-12    C    0.57012016    0.70606011    0.50001045    0.10710000
opls_142-13    C    0.62094993    0.52656003    0.50001045    0.10660000
opls_142-14    C    0.29393998    0.86406014    0.50001045    0.10710000
opls_142-15    C    0.47343990    0.09438993    0.50001045    0.10660000
opls_142-16    C    0.13594004    0.42988010    0.50001045    0.10710000
opls_142-17    C    0.90561017    0.37905004    0.50001045    0.10660000
opls_145-18    C    0.66652986    0.70787999    0.50001045    -0.21110000
opls_145-19    C    0.65617997    0.61527014    0.50001045    0.09020000
opls_145-20    C    0.29212023    0.95865017    0.50001045    -0.21110000
opls_145-21    C    0.38473013    0.04090015    0.50001045    0.09010000
opls_145-22    C    0.04134991    0.33346984    0.50001045    -0.21110000
opls_145-23    C    0.95909996    0.34382003    0.50001045    0.09010000
opls_700-24    C    0.70787011    0.70324010    0.50001045    0.11290000
opls_280-25    C    0.61525987    0.62101989    0.50001045    0.15640000
opls_700-26    C    0.29676004    0.00462985    0.50001045    0.11290000
opls_280-27    C    0.37897996    0.99423017    0.50001045    0.15640000
opls_700-28    C    0.99537016    0.29213005    0.50001045    0.11260000
opls_280-29    C    0.00577005    0.38473990    0.50001045    0.15640000
opls_145-30    C    0.70208014    0.65675014    0.50001045    -0.21070000
opls_145-31    C    0.62001000    0.66716990    0.50001045    0.09600000
opls_145-32    C    0.34325003    0.04532990    0.50001045    -0.21070000
opls_145-33    C    0.33283008    0.95284018    0.50001045    0.09610000
opls_145-34    C    0.95466983    0.29791996    0.50001045    -0.21070000
opls_145-35    C    0.04715991    0.37998992    0.50001045    0.09610000
opls_531-36    C    0.32558991    0.70500010    0.50001045    0.33060000
opls_531-37    C    0.62896985    0.28691999    0.50001045    0.33070000
opls_531-38    C    0.29499986    0.62058993    0.50001045    0.33060000
opls_531-39    C    0.71307998    0.34206003    0.50001045    0.33070000
opls_531-40    C    0.37940997    0.67442001    0.50001045    0.33070000
opls_531-41    C    0.65793997    0.37103002    0.50001045    0.33080000
opls_700-42    C    0.31770987    0.74450997    0.50001045    0.00510000
opls_700-43    C    0.59013009    0.23915988    0.50001045    0.00510000
opls_700-44    C    0.25548987    0.57319989    0.50001045    0.00510000
opls_700-45    C    0.76083993    0.35097009    0.50001045    0.00480000
opls_700-46    C    0.42679995    0.68229014    0.50001045    0.00530000
opls_700-47    C    0.64902998    0.40987003    0.50001045    0.00520000
opls_523-48    C    0.43564009    0.64336013    0.50001045    -0.17920000
opls_523-49    C    0.68711981    0.45808986    0.50001045    -0.17940000
opls_523-50    C    0.35663006    0.79227008    0.50001045    -0.17920000
opls_523-51    C    0.54190985    0.22902987    0.50001045    -0.17940000
opls_523-52    C    0.20772997    0.56436011    0.50001045    -0.17920000
opls_523-53    C    0.77096985    0.31287991    0.50001045    -0.17930000
opls_145-54    C    0.48260990    0.65097996    0.50001045    -0.17930000
opls_145-55    C    0.67825001    0.49666989    0.50001045    -0.17910000
opls_145-56    C    0.34902010    0.83163006    0.50001045    -0.17930000
opls_145-57    C    0.50333010    0.18156990    0.50001045    -0.17920000
opls_145-58    C    0.16837000    0.51738999    0.50001045    -0.17930000
opls_145-59    C    0.81843009    0.32175017    0.50001045    -0.17920000
opls_700-60    C    0.52280994    0.69786007    0.50001045    0.04980000
opls_700-61    C    0.63087009    0.48860002    0.50001045    0.04890000
opls_700-62    C    0.30214012    0.82495011    0.50001045    0.04980000
opls_700-63    C    0.51139999    0.14227017    0.50001045    0.04910000
opls_700-64    C    0.17505011    0.47719018    0.50001045    0.04940000
opls_700-65    C    0.85773010    0.36913017    0.50001045    0.04790000
opls_145-66    C    0.51427997    0.73687006    0.50001045    -0.17930000
opls_145-67    C    0.59272005    0.44061005    0.50001045    -0.17930000
opls_145-68    C    0.26313002    0.77741018    0.50001045    -0.17930000
opls_145-69    C    0.55939013    0.15212012    0.50001045    -0.17930000
opls_145-70    C    0.22257994    0.48572013    0.50001045    -0.17930000
opls_145-71    C    0.84787994    0.40727988    0.50001045    -0.17930000
opls_523-72    C    0.46724008    0.72921006    0.50001045    -0.17930000
opls_523-73    C    0.60163992    0.40207986    0.50001045    -0.17920000
opls_523-74    C    0.27079019    0.73803012    0.50001045    -0.17940000
opls_523-75    C    0.59792009    0.19956000    0.50001045    -0.17900000
opls_523-76    C    0.26197022    0.53276018    0.50001045    -0.17940000
opls_523-77    C    0.80043999    0.39836014    0.50001045    -0.17920000
opls_701-78    C    0.75605991    0.74670996    0.50001045    -0.42680000
opls_701-79    C    0.25329017    0.00936010    0.50001045    -0.42690000
opls_701-80    C    0.99064004    0.24393998    0.50001045    -0.42680000
opls_144-81    H    0.59817981    0.74044993    0.50001045    0.11380000
opls_144-82    H    0.58598010    0.51821010    0.50001045    0.11390000
opls_144-83    H    0.25955002    0.85773019    0.50001045    0.11380000
opls_144-84    H    0.48178981    0.06777987    0.50001045    0.11390000
opls_144-85    H    0.14226986    0.40181988    0.50001045    0.11380000
opls_144-86    H    0.93221989    0.41402007    0.50001045    0.11390000
opls_526-87    H    0.40781010    0.60875013    0.50001045    0.23250000
opls_526-88    H    0.72201994    0.46574017    0.50001045    0.23240000
opls_526-89    H    0.39125001    0.79905008    0.50001045    0.23240000
opls_526-90    H    0.53426010    0.25628002    0.50001045    0.23240000
opls_526-91    H    0.20094995    0.59219011    0.50001045    0.23240000
opls_526-92    H    0.74372013    0.27798017    0.50001045    0.23240000
opls_146-93    H    0.48730010    0.62179015    0.50001045    0.23240000
opls_146-94    H    0.70678993    0.53096002    0.50001045    0.23240000
opls_146-95    H    0.37820986    0.86550995    0.50001045    0.23250000
opls_146-96    H    0.46904006    0.17582984    0.50001045    0.23240000
opls_146-97    H    0.13449004    0.51269990    0.50001045    0.23240000
opls_146-98    H    0.82417002    0.29321014    0.50001045    0.23240000
opls_146-99    H    0.54235988    0.77136997    0.50001045    0.23240000
opls_146-100    H    0.55787001    0.43316987    0.50001045    0.23240000
opls_146-101    H    0.22863002    0.77099989    0.50001045    0.23240000
opls_146-102    H    0.56683010    0.12471003    0.50001045    0.23250000
opls_146-103    H    0.22900016    0.45763014    0.50001045    0.23250000
opls_146-104    H    0.87529000    0.44213014    0.50001045    0.23240000
opls_526-105    H    0.46289988    0.75858992    0.50001045    0.23240000
opls_526-106    H    0.57279985    0.36800991    0.50001045    0.23240000
opls_526-107    H    0.24141021    0.70431016    0.50001045    0.23240000
opls_526-108    H    0.63198995    0.20479014    0.50001045    0.23250000
opls_526-109    H    0.29568991    0.53709992    0.50001045    0.23240000
opls_526-110    H    0.79520989    0.42719995    0.50001045    0.23240000
opls_702-111    H    0.76025001    0.76879990    0.27614022    0.11190000
opls_702-112    H    0.23119990    0.99144997    0.27614022    0.11190000
opls_702-113    H    0.00855009    0.23975013    0.27614022    0.11190000
opls_702-114    H    0.76025001    0.76879990    0.72387023    0.10860000
opls_702-115    H    0.23119990    0.99144997    0.72387023    0.11190000
opls_702-116    H    0.00855009    0.23975013    0.72387023    0.11130000
opls_146-117    H    0.73191010    0.65308994    0.50001045    0.23240000
opls_146-118    H    0.67064993    0.74146010    0.50001045    0.23250000
opls_702-119    H    0.78498000    0.73831018    0.50001045    0.11940000
opls_146-120    H    0.34690988    0.07882000    0.50001045    0.23240000
opls_146-121    H    0.25852982    0.92917994    0.50001045    0.23240000
opls_702-122    H    0.26168998    0.04666998    0.50001045    0.11670000
opls_146-123    H    0.92118001    0.26809006    0.50001045    0.23240000
opls_146-124    H    0.07081989    0.32934992    0.50001045    0.23240000
opls_702-125    H    0.95333002    0.21501984    0.50001045    0.11740000
opls_281-126    O    0.57382008    0.58534019    0.50001045    -0.43510000
opls_281-127    O    0.41465990    0.98848007    0.50001045    -0.47870000
opls_281-128    O    0.01152020    0.42618010    0.50001045    -0.43520000
