#======================================================================
# Crystal Data Generated By AuToFF
#----------------------------------------------------------------------

data_AuToFF_phase_1

_cell_length_a                         18.1590
_cell_length_b                         18.1590
_cell_length_c                         3.4970
_cell_angle_alpha                      90.00
_cell_angle_beta                       90.00
_cell_angle_gamma                      120.00
_symmetry_space_group_name_H-M_alt     'P 1'
_symmetry_space_group_IT_number        1

loop_
_space_group_symop_operation_xyz
   'x, y, z'

loop_
   _atom_site_label
   _atom_site_type_symbol
   _atom_site_fract_x
   _atom_site_fract_y
   _atom_site_fract_z
   _atom_site_charge
opls_142-0    C    0.15464000    0.56363982    0.50000000    0.10280000
opls_700-1    C    0.84309000    0.43862011    0.50000000    0.06310000
opls_523-2    C    0.89765025    0.40528012    0.50000000    -0.21930000
opls_145-3    C    0.98333028    0.45691001    0.50000000    -0.22520000
opls_145-4    C    0.01823981    0.54297998    0.50000000    0.19250000
opls_145-5    C    0.96426014    0.57861996    0.50000000    -0.21600000
opls_523-6    C    0.87741995    0.52527000    0.50000000    -0.21930000
opls_700-7    C    0.36742016    0.75400988    0.50000000    0.05520000
opls_145-8    C    0.28035993    0.70134985    0.50000000    -0.14160000
opls_531-9    C    0.61655010    0.36657010    0.50000000    0.33140000
opls_142-10    C    0.43636016    0.59099996    0.50000000    0.10280000
opls_700-11    C    0.56137978    0.40447000    0.50000000    0.06310000
opls_523-12    C    0.59472018    0.49237004    0.50000000    -0.21930000
opls_145-13    C    0.54308979    0.52641967    0.50000000    -0.22520000
opls_145-14    C    0.45701968    0.47525969    0.50000000    0.19250000
opls_145-15    C    0.42137974    0.38563960    0.50000000    -0.21600000
opls_523-16    C    0.47473030    0.35215018    0.50000000    -0.21930000
opls_700-17    C    0.24599008    0.61340976    0.50000000    0.05520000
opls_145-18    C    0.29864965    0.57900975    0.50000000    -0.14160000
opls_531-19    C    0.63342972    0.24997965    0.50000000    0.33140000
opls_142-20    C    0.40899952    0.84535958    0.50000000    0.10280000
opls_700-21    C    0.59552967    0.15690989    0.50000000    0.06310000
opls_523-22    C    0.50763012    0.10234984    0.50000000    -0.21930000
opls_145-23    C    0.47357994    0.01667031    0.50000000    -0.22520000
opls_145-24    C    0.52473964    0.98175969    0.50000000    0.19250000
opls_145-25    C    0.61435980    0.03573981    0.50000000    -0.21600000
opls_523-26    C    0.64784975    0.12257983    0.50000000    -0.21930000
opls_700-27    C    0.38658999    0.63257973    0.50000000    0.05520000
opls_145-28    C    0.42099010    0.71963976    0.50000000    -0.14160000
opls_531-29    C    0.75001987    0.38344962    0.50000000    0.33140000
opls_750-30    N    0.10737973    0.59748979    0.50000000    -0.32510000
opls_520-31    N    0.70015021    0.41959003    0.50000000    -0.42860000
opls_750-32    N    0.40250979    0.50988989    0.50000000    -0.32510000
opls_520-33    N    0.58040992    0.28055991    0.50000000    -0.42860000
opls_750-34    N    0.49010961    0.89261969    0.50000000    -0.32510000
opls_520-35    N    0.71943987    0.29985006    0.50000000    -0.42870000
opls_526-36    H    0.87438974    0.34533987    0.50000000    0.22230000
opls_146-37    H    0.01946964    0.43285964    0.50000000    0.22220000
opls_146-38    H    0.98781957    0.63873953    0.50000000    0.22220000
opls_526-39    H    0.84080017    0.54868003    0.50000000    0.22220000
opls_146-40    H    0.23669011    0.72988002    0.50000000    0.03710000
opls_144-41    H    0.13993953    0.50245960    0.50000000    0.10420000
opls_526-42    H    0.65465976    0.52904969    0.50000000    0.22220000
opls_146-43    H    0.56713993    0.58660983    0.50000000    0.22220000
opls_146-44    H    0.36126015    0.34908013    0.50000000    0.22220000
opls_526-45    H    0.45132002    0.29211963    0.50000000    0.22220000
opls_146-46    H    0.27011996    0.50680967    0.50000000    0.03710000
opls_144-47    H    0.49753997    0.63747984    0.50000000    0.10420000
opls_526-48    H    0.47095018    0.12560981    0.50000000    0.22220000
opls_146-49    H    0.41339012    0.98052989    0.50000000    0.22220000
opls_146-50    H    0.65091996    0.01217971    0.50000000    0.22220000
opls_526-51    H    0.70788004    0.15919970    0.50000000    0.22220000
opls_146-52    H    0.49318961    0.76330967    0.50000000    0.03710000
opls_144-53    H    0.36252019    0.86005993    0.50000000    0.10420000
