#======================================================================
# Crystal Data Generated By AuToFF
#----------------------------------------------------------------------

data_AuToFF_phase_1

_cell_length_a                         24.3068
_cell_length_b                         3.7917
_cell_length_c                         24.5584
_cell_angle_alpha                      90.00
_cell_angle_beta                       93.14
_cell_angle_gamma                      90.00
_symmetry_space_group_name_H-M_alt     'P 1'
_symmetry_space_group_IT_number        1

loop_
_space_group_symop_operation_xyz
   'x, y, z'

loop_
   _atom_site_label
   _atom_site_type_symbol
   _atom_site_fract_x
   _atom_site_fract_y
   _atom_site_fract_z
   _atom_site_charge
opls_145-0    C    0.55103005    0.13116017    0.41427000    -0.12780000
opls_700-1    C    0.49539003    0.06651898    0.42332979    0.02450000
opls_700-2    C    0.47949976    0.06137880    0.47806987    0.02780000
opls_700-3    C    0.57716980    0.06661919    0.51083008    0.02430000
opls_145-4    C    0.59091007    0.13092017    0.45693008    -0.13000000
opls_700-5    C    0.45485000    0.02157080    0.37987980    0.03290000
opls_145-6    C    0.39969004    0.98136983    0.39266979    -0.16140000
opls_700-7    C    0.38221984    0.02215893    0.44577987    0.03600000
opls_700-8    C    0.46702987    0.01198935    0.32062980    0.06930000
opls_700-9    C    0.32131012    0.01357966    0.45290015    0.06990000
opls_145-10    C    0.51262987    0.82910040    0.30184018    -0.11490000
opls_145-11    C    0.52326001    0.82636021    0.24652999    -0.16280000
opls_145-12    C    0.48677992    0.98652056    0.20812984    0.19520000
opls_145-13    C    0.44009001    0.16102012    0.22612995    -0.16450000
opls_145-14    C    0.43070999    0.17606878    0.28169012    -0.12630000
opls_145-15    C    0.71507980    0.17789910    0.58590006    -0.12720000
opls_145-16    C    0.77201013    0.16387109    0.58101986    -0.16620000
opls_145-17    C    0.79417995    0.99458027    0.53666004    0.19680000
opls_145-18    C    0.75827983    0.82548989    0.49804988    -0.16420000
opls_145-19    C    0.70144990    0.82896062    0.50406011    -0.11390000
opls_142-20    C    0.88072985    0.89339874    0.49236997    0.07190000
opls_700-21    C    0.94166976    0.91321043    0.49545012    -0.03450000
opls_142-22    C    0.53574989    0.01444998    0.88957006    0.07180000
opls_700-23    C    0.51748981    0.00865047    0.94606982    -0.04920000
opls_145-24    C    0.97017003    0.91515943    0.54680990    -0.24700000
opls_166-25    C    0.02771987    0.92095894    0.55194009    0.31010000
opls_145-26    C    0.46109999    0.00757971    0.95603984    -0.24930000
opls_166-27    C    0.44342000    0.00862937    0.00949982    0.26630000
opls_145-28    C    0.44896995    0.13116017    0.58573000    -0.12780000
opls_700-29    C    0.50460995    0.06651898    0.57666980    0.02450000
opls_700-30    C    0.52049983    0.06137880    0.52193013    0.02780000
opls_700-31    C    0.42282978    0.06661919    0.48916992    0.02430000
opls_145-32    C    0.40908993    0.13092017    0.54306992    -0.13000000
opls_700-33    C    0.54514998    0.02157080    0.62011980    0.03290000
opls_145-34    C    0.60030994    0.98136983    0.60732981    -0.16140000
opls_700-35    C    0.61777975    0.02215893    0.55422013    0.03600000
opls_700-36    C    0.53297010    0.01198935    0.67936979    0.06930000
opls_700-37    C    0.67868988    0.01357966    0.54709985    0.06990000
opls_145-38    C    0.48736971    0.82910040    0.69815982    -0.11490000
opls_145-39    C    0.47673999    0.82636021    0.75347001    -0.16280000
opls_145-40    C    0.51322006    0.98652056    0.79186975    0.19520000
opls_145-41    C    0.55990999    0.16102012    0.77387005    -0.16450000
opls_145-42    C    0.56929001    0.17606878    0.71830988    -0.12630000
opls_145-43    C    0.28491979    0.17789910    0.41409994    -0.12720000
opls_145-44    C    0.22798987    0.16387109    0.41898014    -0.16620000
opls_145-45    C    0.20582005    0.99458027    0.46333996    0.19680000
opls_145-46    C    0.24171975    0.82548989    0.50195012    -0.16420000
opls_145-47    C    0.29855010    0.82896062    0.49593989    -0.11380000
opls_142-48    C    0.11927015    0.89339874    0.50763003    0.07190000
opls_700-49    C    0.05832983    0.91321043    0.50454988    -0.03450000
opls_142-50    C    0.46425011    0.01444998    0.11042994    0.07180000
opls_700-51    C    0.48251019    0.00865047    0.05393018    -0.04920000
opls_145-52    C    0.02982997    0.91515943    0.45319010    -0.24700000
opls_166-53    C    0.97228013    0.92095894    0.44805991    0.31030000
opls_145-54    C    0.53890001    0.00757971    0.04396016    -0.24930000
opls_166-55    C    0.55657998    0.00862937    0.99049977    0.26630000
opls_750-56    N    0.85303982    0.99757101    0.53323000    -0.33010000
opls_750-57    N    0.50050971    0.97637999    0.84827001    -0.34170000
opls_750-58    N    0.14695977    0.99757101    0.46677000    -0.33000000
opls_750-59    N    0.49948988    0.97637999    0.15172999    -0.34150000
opls_146-60    H    0.56503997    0.18408102    0.37427982    0.09470000
opls_146-61    H    0.63253010    0.18307883    0.44644989    0.09460000
opls_146-62    H    0.36927003    0.92052114    0.36014978    0.11640000
opls_146-63    H    0.53997995    0.68437113    0.32967002    0.10420000
opls_146-64    H    0.55919000    0.68861988    0.23327999    0.11930000
opls_146-65    H    0.41195982    0.29863122    0.19788985    0.12420000
opls_146-66    H    0.39548015    0.32397869    0.29429986    0.11960000
opls_146-67    H    0.69951000    0.32388902    0.61967978    0.11930000
opls_146-68    H    0.79899992    0.29420049    0.61125982    0.11960000
opls_146-69    H    0.77341982    0.67931007    0.46424977    0.11750000
opls_146-70    H    0.67549004    0.68184983    0.47528008    0.09470000
opls_144-71    H    0.85971002    0.79259963    0.45584980    0.10300000
opls_144-72    H    0.57920009    0.04255083    0.88313000    0.09630000
opls_146-73    H    0.94763980    0.91269879    0.58366977    0.11750000
opls_146-74    H    0.43056991    0.00871113    0.92222994    0.11960000
opls_168-75    H    0.09231989    0.01393043    0.60709002    0.34030000
opls_168-76    H    0.63762980    0.00899069    0.01572007    0.30820000
opls_146-77    H    0.43496001    0.18408102    0.62571978    0.09460000
opls_146-78    H    0.36746990    0.18307883    0.55355011    0.09460000
opls_146-79    H    0.63072995    0.92052114    0.63984981    0.11640000
opls_146-80    H    0.46002005    0.68437113    0.67032998    0.10420000
opls_146-81    H    0.44081000    0.68861988    0.76672001    0.11920000
opls_146-82    H    0.58803975    0.29863122    0.80210974    0.12420000
opls_146-83    H    0.60451985    0.32397869    0.70570014    0.11960000
opls_146-84    H    0.30048998    0.32388902    0.38031982    0.11930000
opls_146-85    H    0.20100006    0.29420049    0.38873977    0.11970000
opls_146-86    H    0.22657974    0.67931007    0.53574982    0.11750000
opls_146-87    H    0.32450996    0.68184983    0.52471992    0.09460000
opls_144-88    H    0.14028996    0.79259963    0.54414979    0.10300000
opls_144-89    H    0.42079991    0.04255083    0.11687000    0.09630000
opls_146-90    H    0.05235977    0.91269879    0.41632982    0.11750000
opls_146-91    H    0.56943009    0.00871113    0.07777006    0.11960000
opls_168-92    H    0.90768011    0.01393043    0.39290998    0.34030000
opls_168-93    H    0.36237020    0.00899069    0.98427993    0.30810000
opls_167-94    O    0.05226985    0.94169106    0.60475003    -0.44400000
opls_167-95    O    0.61284999    0.00924124    0.98115981    -0.45090000
opls_167-96    O    0.94773015    0.94169106    0.39524997    -0.44400000
opls_167-97    O    0.38715001    0.00924124    0.01884019    -0.45100000
