#======================================================================
# Crystal Data Generated By AuToFF
#----------------------------------------------------------------------

data_AuToFF_phase_1

_cell_length_a                         21.5762
_cell_length_b                         21.5762
_cell_length_c                         22.6014
_cell_angle_alpha                      90.00
_cell_angle_beta                       90.00
_cell_angle_gamma                      90.00
_symmetry_space_group_name_H-M_alt     'P 1'
_symmetry_space_group_IT_number        1

loop_
_space_group_symop_operation_xyz
   'x, y, z'

loop_
   _atom_site_label
   _atom_site_type_symbol
   _atom_site_fract_x
   _atom_site_fract_y
   _atom_site_fract_z
   _atom_site_charge
opls_145-0    C    0.81624985    0.60961986    0.42662003    -0.09410000
opls_145-1    C    0.18906017    0.32684996    0.41664012    -0.07720000
opls_700-2    C    0.21959010    0.28795988    0.45781014    0.02530000
opls_145-3    C    0.08351980    0.70815018    0.47780005    -0.08740000
opls_145-4    C    0.87920996    0.26188995    0.51928996    -0.07720000
opls_700-5    C    0.81466013    0.25534014    0.51007017    0.02660000
opls_145-6    C    0.13956999    0.88464002    0.65560983    -0.12820000
opls_145-7    C    0.16515003    0.85914016    0.60420992    -0.07140000
opls_142-8    C    0.13028986    0.86898991    0.81601007    0.01700000
opls_145-9    C    0.14456994    0.85374997    0.70982992    0.23680000
opls_145-10    C    0.17417015    0.79559005    0.71180989    -0.12850000
opls_145-11    C    0.19953004    0.76988997    0.66035998    -0.07140000
opls_700-12    C    0.22332987    0.77507995    0.55216004    -0.02190000
opls_145-13    C    0.58255022    0.58281023    0.97136018    -0.17160000
opls_166-14    C    0.61358997    0.61369982    0.92462989    0.30000000
opls_700-15    C    0.53805999    0.53821016    0.95789995    0.04630000
opls_700-16    C    0.59861978    0.59845014    0.86504995    -0.02700000
opls_145-17    C    0.55314003    0.55300006    0.85286000    -0.07800000
opls_700-18    C    0.52377991    0.52382996    0.90006017    0.03480000
opls_700-19    C    0.30177001    0.30454992    0.60648986    0.08590000
opls_143-20    C    0.32502989    0.32481021    0.99441008    0.11960000
opls_145-21    C    0.18375015    0.39038014    0.42662003    -0.09410000
opls_145-22    C    0.81093983    0.67315004    0.41664012    -0.07710000
opls_700-23    C    0.78040990    0.71204012    0.45781014    0.02530000
opls_145-24    C    0.91648020    0.29184982    0.47780005    -0.08740000
opls_145-25    C    0.12079004    0.73811005    0.51928996    -0.07720000
opls_700-26    C    0.18533987    0.74465986    0.51007017    0.02660000
opls_145-27    C    0.86043001    0.11535998    0.65560983    -0.12830000
opls_145-28    C    0.83484997    0.14085984    0.60420992    -0.07140000
opls_142-29    C    0.86971014    0.13101009    0.81601007    0.01700000
opls_145-30    C    0.85543006    0.14625003    0.70982992    0.23680000
opls_145-31    C    0.82582985    0.20440995    0.71180989    -0.12840000
opls_145-32    C    0.80046996    0.23011003    0.66035998    -0.07140000
opls_700-33    C    0.77667013    0.22492005    0.55216004    -0.02190000
opls_145-34    C    0.41744978    0.41718977    0.97136018    -0.17160000
opls_166-35    C    0.38641003    0.38630018    0.92462989    0.30010000
opls_700-36    C    0.46194001    0.46178984    0.95789995    0.04630000
opls_700-37    C    0.40138022    0.40154986    0.86504995    -0.02700000
opls_145-38    C    0.44685997    0.44699994    0.85286000    -0.07800000
opls_700-39    C    0.47622009    0.47617004    0.90006017    0.03470000
opls_700-40    C    0.69822999    0.69545008    0.60648986    0.08590000
opls_143-41    C    0.67497011    0.67518979    0.99441008    0.11960000
opls_145-42    C    0.89038014    0.31624985    0.42662003    -0.09410000
opls_145-43    C    0.17315004    0.68906017    0.41664012    -0.07720000
opls_700-44    C    0.21204012    0.71959010    0.45781014    0.02530000
opls_145-45    C    0.79184982    0.58351980    0.47780005    -0.08740000
opls_145-46    C    0.23811005    0.37920996    0.51928996    -0.07720000
opls_700-47    C    0.24465986    0.31466013    0.51007017    0.02660000
opls_145-48    C    0.61535998    0.63956999    0.65560983    -0.12830000
opls_145-49    C    0.64085984    0.66515003    0.60420992    -0.07140000
opls_142-50    C    0.63101009    0.63028986    0.81601007    0.01700000
opls_145-51    C    0.64625003    0.64456994    0.70982992    0.23680000
opls_145-52    C    0.70440995    0.67417015    0.71180989    -0.12850000
opls_145-53    C    0.73011003    0.69953004    0.66035998    -0.07140000
opls_700-54    C    0.72492005    0.72332987    0.55216004    -0.02190000
opls_145-55    C    0.91718977    0.08255022    0.97136018    -0.17160000
opls_166-56    C    0.88630018    0.11358997    0.92462989    0.30000000
opls_700-57    C    0.96178984    0.03805999    0.95789995    0.04630000
opls_700-58    C    0.90154986    0.09861978    0.86504995    -0.02700000
opls_145-59    C    0.94699994    0.05314003    0.85286000    -0.07800000
opls_700-60    C    0.97617004    0.02377991    0.90006017    0.03470000
opls_700-61    C    0.19545008    0.80177001    0.60648986    0.08590000
opls_143-62    C    0.17518979    0.82502989    0.99441008    0.11960000
opls_145-63    C    0.10961986    0.68375015    0.42662003    -0.09410000
opls_145-64    C    0.82684996    0.31093983    0.41664012    -0.07720000
opls_700-65    C    0.78795988    0.28040990    0.45781014    0.02530000
opls_145-66    C    0.20815018    0.41648020    0.47780005    -0.08740000
opls_145-67    C    0.76188995    0.62079004    0.51928996    -0.07720000
opls_700-68    C    0.75534014    0.68533987    0.51007017    0.02660000
opls_145-69    C    0.38464002    0.36043001    0.65560983    -0.12830000
opls_145-70    C    0.35914016    0.33484997    0.60420992    -0.07130000
opls_142-71    C    0.36898991    0.36971014    0.81601007    0.01700000
opls_145-72    C    0.35374997    0.35543006    0.70982992    0.23680000
opls_145-73    C    0.29559005    0.32582985    0.71180989    -0.12850000
opls_145-74    C    0.26988997    0.30046996    0.66035998    -0.07140000
opls_700-75    C    0.27507995    0.27667013    0.55216004    -0.02190000
opls_145-76    C    0.08281023    0.91744978    0.97136018    -0.17160000
opls_166-77    C    0.11369982    0.88641003    0.92462989    0.30000000
opls_700-78    C    0.03821016    0.96194001    0.95789995    0.04630000
opls_700-79    C    0.09845014    0.90138022    0.86504995    -0.02700000
opls_145-80    C    0.05300006    0.94685997    0.85286000    -0.07800000
opls_700-81    C    0.02382996    0.97622009    0.90006017    0.03470000
opls_700-82    C    0.80454992    0.19822999    0.60648986    0.08590000
opls_143-83    C    0.82481021    0.17497011    0.99441008    0.11960000
opls_145-84    C    0.68375015    0.89038014    0.57337997    -0.09410000
opls_145-85    C    0.31093983    0.17315004    0.58335988    -0.07720000
opls_700-86    C    0.28040990    0.21204012    0.54218986    0.02530000
opls_145-87    C    0.41648020    0.79184982    0.52219995    -0.08740000
opls_145-88    C    0.62079004    0.23811005    0.48071004    -0.07720000
opls_700-89    C    0.68533987    0.24465986    0.48992983    0.02660000
opls_145-90    C    0.36043001    0.61535998    0.34439017    -0.12830000
opls_145-91    C    0.33484997    0.64085984    0.39579008    -0.07140000
opls_142-92    C    0.36971014    0.63101009    0.18398993    0.01700000
opls_145-93    C    0.35543006    0.64625003    0.29017008    0.23680000
opls_145-94    C    0.32582985    0.70440995    0.28819011    -0.12850000
opls_145-95    C    0.30046996    0.73011003    0.33964002    -0.07140000
opls_700-96    C    0.27667013    0.72492005    0.44783996    -0.02190000
opls_145-97    C    0.91744978    0.91718977    0.02863982    -0.17160000
opls_166-98    C    0.88641003    0.88630018    0.07537011    0.30010000
opls_700-99    C    0.96194001    0.96178984    0.04210005    0.04630000
opls_700-100    C    0.90138022    0.90154986    0.13495005    -0.02700000
opls_145-101    C    0.94685997    0.94699994    0.14714000    -0.07800000
opls_700-102    C    0.97622009    0.97617004    0.09993983    0.03470000
opls_700-103    C    0.19822999    0.19545008    0.39351014    0.08590000
opls_143-104    C    0.17497011    0.17518979    0.00558992    0.11960000
opls_145-105    C    0.31624985    0.10961986    0.57337997    -0.09410000
opls_145-106    C    0.68906017    0.82684996    0.58335988    -0.07720000
opls_700-107    C    0.71959010    0.78795988    0.54218986    0.02530000
opls_145-108    C    0.58351980    0.20815018    0.52219995    -0.08730000
opls_145-109    C    0.37920996    0.76188995    0.48071004    -0.07720000
opls_700-110    C    0.31466013    0.75534014    0.48992983    0.02660000
opls_145-111    C    0.63956999    0.38464002    0.34439017    -0.12820000
opls_145-112    C    0.66515003    0.35914016    0.39579008    -0.07140000
opls_142-113    C    0.63028986    0.36898991    0.18398993    0.01700000
opls_145-114    C    0.64456994    0.35374997    0.29017008    0.23690000
opls_145-115    C    0.67417015    0.29559005    0.28819011    -0.12850000
opls_145-116    C    0.69953004    0.26988997    0.33964002    -0.07140000
opls_700-117    C    0.72332987    0.27507995    0.44783996    -0.02190000
opls_145-118    C    0.08255022    0.08281023    0.02863982    -0.17160000
opls_166-119    C    0.11358997    0.11369982    0.07537011    0.30010000
opls_700-120    C    0.03805999    0.03821016    0.04210005    0.04630000
opls_700-121    C    0.09861978    0.09845014    0.13495005    -0.02700000
opls_145-122    C    0.05314003    0.05300006    0.14714000    -0.07800000
opls_700-123    C    0.02377991    0.02382996    0.09993983    0.03470000
opls_700-124    C    0.80177001    0.80454992    0.39351014    0.08590000
opls_143-125    C    0.82502989    0.82481021    0.00558992    0.11960000
opls_145-126    C    0.60961986    0.18375015    0.57337997    -0.09410000
opls_145-127    C    0.32684996    0.81093983    0.58335988    -0.07720000
opls_700-128    C    0.28795988    0.78040990    0.54218986    0.02530000
opls_145-129    C    0.70815018    0.91648020    0.52219995    -0.08740000
opls_145-130    C    0.26188995    0.12079004    0.48071004    -0.07720000
opls_700-131    C    0.25534014    0.18533987    0.48992983    0.02660000
opls_145-132    C    0.88464002    0.86043001    0.34439017    -0.12830000
opls_145-133    C    0.85914016    0.83484997    0.39579008    -0.07140000
opls_142-134    C    0.86898991    0.86971014    0.18398993    0.01700000
opls_145-135    C    0.85374997    0.85543006    0.29017008    0.23680000
opls_145-136    C    0.79559005    0.82582985    0.28819011    -0.12840000
opls_145-137    C    0.76988997    0.80046996    0.33964002    -0.07130000
opls_700-138    C    0.77507995    0.77667013    0.44783996    -0.02190000
opls_145-139    C    0.58281023    0.41744978    0.02863982    -0.17160000
opls_166-140    C    0.61369982    0.38641003    0.07537011    0.30020000
opls_700-141    C    0.53821016    0.46194001    0.04210005    0.04630000
opls_700-142    C    0.59845014    0.40138022    0.13495005    -0.02700000
opls_145-143    C    0.55300006    0.44685997    0.14714000    -0.07800000
opls_700-144    C    0.52382996    0.47622009    0.09993983    0.03470000
opls_700-145    C    0.30454992    0.69822999    0.39351014    0.08590000
opls_143-146    C    0.32481021    0.67497011    0.00558992    0.11960000
opls_145-147    C    0.39038014    0.81624985    0.57337997    -0.09400000
opls_145-148    C    0.67315004    0.18906017    0.58335988    -0.07720000
opls_700-149    C    0.71204012    0.21959010    0.54218986    0.02530000
opls_145-150    C    0.29184982    0.08351980    0.52219995    -0.08740000
opls_145-151    C    0.73811005    0.87920996    0.48071004    -0.07720000
opls_700-152    C    0.74465986    0.81466013    0.48992983    0.02660000
opls_145-153    C    0.11535998    0.13956999    0.34439017    -0.12830000
opls_145-154    C    0.14085984    0.16515003    0.39579008    -0.07140000
opls_142-155    C    0.13101009    0.13028986    0.18398993    0.01700000
opls_145-156    C    0.14625003    0.14456994    0.29017008    0.23680000
opls_145-157    C    0.20440995    0.17417015    0.28819011    -0.12840000
opls_145-158    C    0.23011003    0.19953004    0.33964002    -0.07140000
opls_700-159    C    0.22492005    0.22332987    0.44783996    -0.02190000
opls_145-160    C    0.41718977    0.58255022    0.02863982    -0.17160000
opls_166-161    C    0.38630018    0.61358997    0.07537011    0.30000000
opls_700-162    C    0.46178984    0.53805999    0.04210005    0.04630000
opls_700-163    C    0.40154986    0.59861978    0.13495005    -0.02700000
opls_145-164    C    0.44699994    0.55314003    0.14714000    -0.07800000
opls_700-165    C    0.47617004    0.52377991    0.09993983    0.03470000
opls_700-166    C    0.69545008    0.30177001    0.39351014    0.08600000
opls_143-167    C    0.67518979    0.32502989    0.00558992    0.11970000
opls_701-168    C    0.00000000    0.00000000    0.00000000    -0.00600000
opls_701-169    C    0.50000000    0.50000000    0.00000000    -0.00600000
opls_750-170    N    0.11756009    0.88224015    0.76115993    -0.26160000
opls_750-171    N    0.88243991    0.11775985    0.76115993    -0.26160000
opls_750-172    N    0.61775985    0.61756009    0.76115993    -0.26160000
opls_750-173    N    0.38224015    0.38243991    0.76115993    -0.26160000
opls_750-174    N    0.38243991    0.61775985    0.23884007    -0.26160000
opls_750-175    N    0.61756009    0.38224015    0.23884007    -0.26160000
opls_750-176    N    0.88224015    0.88243991    0.23884007    -0.26150000
opls_750-177    N    0.11775985    0.11756009    0.23884007    -0.26160000
opls_180-178    O    0.65937005    0.65947016    0.93475006    -0.19060000
opls_180-179    O    0.34062995    0.34052984    0.93475006    -0.19060000
opls_180-180    O    0.84052984    0.15937005    0.93475006    -0.19060000
opls_180-181    O    0.15947016    0.84062995    0.93475006    -0.19060000
opls_180-182    O    0.84062995    0.84052984    0.06524994    -0.19050000
opls_180-183    O    0.15937005    0.15947016    0.06524994    -0.19040000
opls_180-184    O    0.65947016    0.34062995    0.06524994    -0.19050000
opls_180-185    O    0.34052984    0.65937005    0.06524994    -0.19050000
opls_146-186    H    0.84064015    0.57896015    0.39278009    0.05130000
opls_146-187    H    0.16836978    0.30631019    0.37457989    0.05130000
opls_146-188    H    0.03155977    0.70367998    0.48589999    0.05130000
opls_146-189    H    0.90145994    0.24253020    0.56114002    0.05130000
opls_146-190    H    0.11435007    0.93101983    0.65357013    0.05130000
opls_146-191    H    0.16135001    0.88505019    0.56039980    0.05130000
opls_144-192    H    0.16634996    0.83203993    0.82673020    0.03030000
opls_146-193    H    0.17754007    0.76926984    0.75543019    0.05130000
opls_146-194    H    0.22358988    0.72289004    0.66220986    0.05130000
opls_146-195    H    0.59411018    0.59456994    0.01927978    0.05130000
opls_146-196    H    0.54118983    0.54090989    0.80510013    0.05130000
opls_185-197    H    0.27743022    0.30473994    0.00500013    0.02590000
opls_185-198    H    0.36020013    0.33235000    0.03136000    0.02590000
opls_146-199    H    0.15935985    0.42103985    0.39278009    0.05130000
opls_146-200    H    0.83163022    0.69368981    0.37457989    0.05130000
opls_146-201    H    0.96844023    0.29632002    0.48589999    0.05130000
opls_146-202    H    0.09854006    0.75746980    0.56114002    0.05140000
opls_146-203    H    0.88564993    0.06898017    0.65357013    0.05130000
opls_146-204    H    0.83864999    0.11494981    0.56039980    0.05130000
opls_144-205    H    0.83365004    0.16796007    0.82673020    0.03030000
opls_146-206    H    0.82245993    0.23073016    0.75543019    0.05130000
opls_146-207    H    0.77641012    0.27710996    0.66220986    0.05130000
opls_146-208    H    0.40588982    0.40543006    0.01927978    0.05130000
opls_146-209    H    0.45881017    0.45909011    0.80510013    0.05130000
opls_185-210    H    0.72256978    0.69526006    0.00500013    0.02590000
opls_185-211    H    0.63979987    0.66765000    0.03136000    0.02590000
opls_146-212    H    0.92103985    0.34064015    0.39278009    0.05130000
opls_146-213    H    0.19368981    0.66836978    0.37457989    0.05130000
opls_146-214    H    0.79632002    0.53155977    0.48589999    0.05130000
opls_146-215    H    0.25746980    0.40145994    0.56114002    0.05130000
opls_146-216    H    0.56898017    0.61435007    0.65357013    0.05130000
opls_146-217    H    0.61494981    0.66135001    0.56039980    0.05130000
opls_144-218    H    0.66796007    0.66634996    0.82673020    0.03030000
opls_146-219    H    0.73073016    0.67754007    0.75543019    0.05130000
opls_146-220    H    0.77710996    0.72358988    0.66220986    0.05130000
opls_146-221    H    0.90543006    0.09411018    0.01927978    0.05140000
opls_146-222    H    0.95909011    0.04118983    0.80510013    0.05130000
opls_185-223    H    0.19526006    0.77743022    0.00500013    0.02590000
opls_185-224    H    0.16765000    0.86020013    0.03136000    0.02590000
opls_146-225    H    0.07896015    0.65935985    0.39278009    0.05130000
opls_146-226    H    0.80631019    0.33163022    0.37457989    0.05130000
opls_146-227    H    0.20367998    0.46844023    0.48589999    0.05130000
opls_146-228    H    0.74253020    0.59854006    0.56114002    0.05130000
opls_146-229    H    0.43101983    0.38564993    0.65357013    0.05130000
opls_146-230    H    0.38505019    0.33864999    0.56039980    0.05130000
opls_144-231    H    0.33203993    0.33365004    0.82673020    0.03030000
opls_146-232    H    0.26926984    0.32245993    0.75543019    0.05130000
opls_146-233    H    0.22289004    0.27641012    0.66220986    0.05140000
opls_146-234    H    0.09456994    0.90588982    0.01927978    0.05130000
opls_146-235    H    0.04090989    0.95881017    0.80510013    0.05130000
opls_185-236    H    0.80473994    0.22256978    0.00500013    0.02590000
opls_185-237    H    0.83235000    0.13979987    0.03136000    0.02590000
opls_146-238    H    0.65935985    0.92103985    0.60721991    0.05130000
opls_146-239    H    0.33163022    0.19368981    0.62542011    0.05130000
opls_146-240    H    0.46844023    0.79632002    0.51410001    0.05130000
opls_146-241    H    0.59854006    0.25746980    0.43885998    0.05130000
opls_146-242    H    0.38564993    0.56898017    0.34642987    0.05130000
opls_146-243    H    0.33864999    0.61494981    0.43960020    0.05130000
opls_144-244    H    0.33365004    0.66796007    0.17326980    0.03030000
opls_146-245    H    0.32245993    0.73073016    0.24456981    0.05130000
opls_146-246    H    0.27641012    0.77710996    0.33779014    0.05130000
opls_146-247    H    0.90588982    0.90543006    0.98072022    0.05130000
opls_146-248    H    0.95881017    0.95909011    0.19489987    0.05130000
opls_185-249    H    0.22256978    0.19526006    0.99499987    0.02590000
opls_185-250    H    0.13979987    0.16765000    0.96864000    0.02590000
opls_146-251    H    0.34064015    0.07896015    0.60721991    0.05140000
opls_146-252    H    0.66836978    0.80631019    0.62542011    0.05130000
opls_146-253    H    0.53155977    0.20367998    0.51410001    0.05130000
opls_146-254    H    0.40145994    0.74253020    0.43885998    0.05130000
opls_146-255    H    0.61435007    0.43101983    0.34642987    0.05130000
opls_146-256    H    0.66135001    0.38505019    0.43960020    0.05130000
opls_144-257    H    0.66634996    0.33203993    0.17326980    0.03030000
opls_146-258    H    0.67754007    0.26926984    0.24456981    0.05130000
opls_146-259    H    0.72358988    0.22289004    0.33779014    0.05130000
opls_146-260    H    0.09411018    0.09456994    0.98072022    0.05140000
opls_146-261    H    0.04118983    0.04090989    0.19489987    0.05130000
opls_185-262    H    0.77743022    0.80473994    0.99499987    0.02590000
opls_185-263    H    0.86020013    0.83235000    0.96864000    0.02590000
opls_146-264    H    0.57896015    0.15935985    0.60721991    0.05130000
opls_146-265    H    0.30631019    0.83163022    0.62542011    0.05130000
opls_146-266    H    0.70367998    0.96844023    0.51410001    0.05130000
opls_146-267    H    0.24253020    0.09854006    0.43885998    0.05130000
opls_146-268    H    0.93101983    0.88564993    0.34642987    0.05130000
opls_146-269    H    0.88505019    0.83864999    0.43960020    0.05130000
opls_144-270    H    0.83203993    0.83365004    0.17326980    0.03040000
opls_146-271    H    0.76926984    0.82245993    0.24456981    0.05130000
opls_146-272    H    0.72289004    0.77641012    0.33779014    0.05130000
opls_146-273    H    0.59456994    0.40588982    0.98072022    0.05130000
opls_146-274    H    0.54090989    0.45881017    0.19489987    0.05130000
opls_185-275    H    0.30473994    0.72256978    0.99499987    0.02590000
opls_185-276    H    0.33235000    0.63979987    0.96864000    0.02590000
opls_146-277    H    0.42103985    0.84064015    0.60721991    0.05130000
opls_146-278    H    0.69368981    0.16836978    0.62542011    0.05140000
opls_146-279    H    0.29632002    0.03155977    0.51410001    0.05130000
opls_146-280    H    0.75746980    0.90145994    0.43885998    0.05130000
opls_146-281    H    0.06898017    0.11435007    0.34642987    0.05130000
opls_146-282    H    0.11494981    0.16135001    0.43960020    0.05130000
opls_144-283    H    0.16796007    0.16634996    0.17326980    0.03030000
opls_146-284    H    0.23073016    0.17754007    0.24456981    0.05130000
opls_146-285    H    0.27710996    0.22358988    0.33779014    0.05130000
opls_146-286    H    0.40543006    0.59411018    0.98072022    0.05130000
opls_146-287    H    0.45909011    0.54118983    0.19489987    0.05130000
opls_185-288    H    0.69526006    0.27743022    0.99499987    0.02590000
opls_185-289    H    0.66765000    0.36020013    0.96864000    0.02590000
