#======================================================================
# Crystal Data Generated By AuToFF
#----------------------------------------------------------------------

data_AuToFF_phase_1

_cell_length_a                         21.6800
_cell_length_b                         21.6800
_cell_length_c                         3.9300
_cell_angle_alpha                      90.00
_cell_angle_beta                       90.00
_cell_angle_gamma                      120.00
_symmetry_space_group_name_H-M_alt     'P 1'
_symmetry_space_group_IT_number        1

loop_
_space_group_symop_operation_xyz
   'x, y, z'

loop_
   _atom_site_label
   _atom_site_type_symbol
   _atom_site_fract_x
   _atom_site_fract_y
   _atom_site_fract_z
   _atom_site_charge
opls_280-0    C    0.25675032    0.63960026    0.65107888    0.31300000
opls_145-1    C    0.28357999    0.58998010    0.69891094    -0.24090000
opls_142-2    C    0.23878025    0.52372010    0.80049873    0.11280000
opls_916-3    C    0.22117012    0.40231995    0.65202036    0.18180000
opls_700-4    C    0.15446001    0.37362020    0.47580916    0.07510000
opls_145-5    C    0.12082994    0.30267003    0.37234097    -0.21200000
opls_916-6    C    0.15149977    0.26007980    0.41639949    0.15880000
opls_700-7    C    0.21904984    0.28931002    0.57872010    0.08420000
opls_145-8    C    0.25228013    0.35968018    0.68846056    -0.19290000
opls_142-9    C    0.11967990    0.13151017    0.39797964    0.10890000
opls_145-10    C    0.06320008    0.07024979    0.45637913    -0.09640000
opls_280-11    C    0.07099981    0.00753005    0.49839949    0.29090000
opls_148-12    C    0.11494024    0.41205022    0.37604071    -0.44020000
opls_148-13    C    0.25762018    0.24897006    0.64655980    -0.47010000
opls_280-14    C    0.36040027    0.61715018    0.65107888    0.31300000
opls_145-15    C    0.41002007    0.69360009    0.69891094    -0.24090000
opls_142-16    C    0.47628003    0.71506005    0.80049873    0.11280000
opls_916-17    C    0.59768005    0.81884995    0.65202036    0.18180000
opls_700-18    C    0.62637996    0.78084017    0.47580916    0.07510000
opls_145-19    C    0.69733011    0.81816022    0.37234097    -0.21200000
opls_916-20    C    0.73991977    0.89141980    0.41639949    0.15880000
opls_700-21    C    0.71069016    0.92974009    0.57872010    0.08410000
opls_145-22    C    0.64031987    0.89260006    0.68846056    -0.19290000
opls_142-23    C    0.86849007    0.98817018    0.39797964    0.10880000
opls_145-24    C    0.92974982    0.99294983    0.45637913    -0.09640000
opls_280-25    C    0.99246987    0.06347018    0.49839949    0.29090000
opls_148-26    C    0.58795002    0.70288989    0.37604071    -0.44020000
opls_148-27    C    0.75102986    0.00865013    0.64655980    -0.47010000
opls_280-28    C    0.38285014    0.74325009    0.65107888    0.31300000
opls_145-29    C    0.30639994    0.71641981    0.69891094    -0.24090000
opls_142-30    C    0.28493972    0.76121985    0.80049873    0.11280000
opls_916-31    C    0.18114983    0.77883010    0.65202036    0.18180000
opls_700-32    C    0.21916030    0.84554016    0.47580916    0.07510000
opls_145-33    C    0.18184021    0.87917028    0.37234097    -0.21190000
opls_916-34    C    0.10857973    0.84849987    0.41639949    0.15880000
opls_700-35    C    0.07026000    0.78094989    0.57872010    0.08410000
opls_145-36    C    0.10740028    0.74772029    0.68846056    -0.19290000
opls_142-37    C    0.01183030    0.88032018    0.39797964    0.10880000
opls_145-38    C    0.00704983    0.93679985    0.45637913    -0.09640000
opls_280-39    C    0.93653013    0.92900029    0.49839949    0.29110000
opls_148-40    C    0.29710974    0.88505989    0.37604071    -0.44020000
opls_148-41    C    0.99134996    0.74237980    0.64655980    -0.47010000
opls_281-42    O    0.19492998    0.61707029    0.56491094    -0.36560000
opls_281-43    O    0.12916999    0.01435014    0.56287023    -0.41400000
opls_281-44    O    0.38293000    0.57786000    0.56491094    -0.36540000
opls_281-45    O    0.98564972    0.11481974    0.56287023    -0.41400000
opls_281-46    O    0.42214029    0.80507024    0.56491094    -0.36560000
opls_281-47    O    0.88518028    0.87083012    0.56287023    -0.41400000
opls_238-48    N    0.25894009    0.47101025    0.81210941    -0.30660000
opls_238-49    N    0.11222019    0.18886012    0.28449109    -0.30550000
opls_238-50    N    0.52899005    0.78793029    0.81210941    -0.30660000
opls_238-51    N    0.81113984    0.92335994    0.28449109    -0.31560000
opls_238-52    N    0.21207013    0.74105999    0.81210941    -0.30660000
opls_238-53    N    0.07663997    0.88777993    0.28449109    -0.30550000
opls_144-54    H    0.18484003    0.50922988    0.86001018    0.09910000
opls_910-55    H    0.30547018    0.48406029    0.94662087    0.25190000
opls_146-56    H    0.06914015    0.28012994    0.24775064    0.10050000
opls_146-57    H    0.30398990    0.38257020    0.81108906    0.10840000
opls_910-58    H    0.06729000    0.17653018    0.13459033    0.25200000
opls_144-59    H    0.16806011    0.13092004    0.35027990    0.09920000
opls_702-60    H    0.06555018    0.39227011    0.52740967    0.09850000
opls_702-61    H    0.09741973    0.39861990    0.10809924    0.16180000
opls_702-62    H    0.14469011    0.47004995    0.38053944    0.10720000
opls_702-63    H    0.26969988    0.23139976    0.40389059    0.12060000
opls_702-64    H    0.22510986    0.20334980    0.81723919    0.16180000
opls_702-65    H    0.30963988    0.28202976    0.77535878    0.16100000
opls_144-66    H    0.49076999    0.67561009    0.86001018    0.09910000
opls_910-67    H    0.51593989    0.82141022    0.94662087    0.25190000
opls_146-68    H    0.71986980    0.78900989    0.24775064    0.10050000
opls_146-69    H    0.61743011    0.92142018    0.81108906    0.10840000
opls_910-70    H    0.82346989    0.89075989    0.13459033    0.25200000
opls_144-71    H    0.86908016    0.03714003    0.35027990    0.09920000
opls_702-72    H    0.60772990    0.67327992    0.52740967    0.09850000
opls_702-73    H    0.60138015    0.69879997    0.10809924    0.16180000
opls_702-74    H    0.52995018    0.67464021    0.38053944    0.10720000
opls_702-75    H    0.76860021    0.03830005    0.40389059    0.12050000
opls_702-76    H    0.79664974    0.02175982    0.81723919    0.16190000
opls_702-77    H    0.71797014    0.02761002    0.77535878    0.16100000
opls_144-78    H    0.32438998    0.81516003    0.86001018    0.09910000
opls_910-79    H    0.17859020    0.69453003    0.94662087    0.25190000
opls_146-80    H    0.21099005    0.93086017    0.24775064    0.10060000
opls_146-81    H    0.07858026    0.69601016    0.81108906    0.10840000
opls_910-82    H    0.10924011    0.93270993    0.13459033    0.25200000
opls_144-83    H    0.96286019    0.83193993    0.35027990    0.09920000
opls_702-84    H    0.32671991    0.93444997    0.52740967    0.09850000
opls_702-85    H    0.30120012    0.90258013    0.10809924    0.16190000
opls_702-86    H    0.32535972    0.85530984    0.38053944    0.10720000
opls_702-87    H    0.96169991    0.73030018    0.40389059    0.12050000
opls_702-88    H    0.97824012    0.77488984    0.81723919    0.16180000
opls_702-89    H    0.97238998    0.69036022    0.77535878    0.16100000
