#======================================================================
# Crystal Data Generated By AuToFF
#----------------------------------------------------------------------

data_AuToFF_phase_1

_cell_length_a                         23.9116
_cell_length_b                         23.9116
_cell_length_c                         3.7333
_cell_angle_alpha                      90.00
_cell_angle_beta                       90.00
_cell_angle_gamma                      120.00
_symmetry_space_group_name_H-M_alt     'P 1'
_symmetry_space_group_IT_number        1

loop_
_space_group_symop_operation_xyz
   'x, y, z'

loop_
   _atom_site_label
   _atom_site_type_symbol
   _atom_site_fract_x
   _atom_site_fract_y
   _atom_site_fract_z
   _atom_site_charge
opls_238-0    N    0.14548012    0.55919992    0.91591086    -0.25700000
opls_238-1    N    0.44080024    0.58628021    0.91591086    -0.25700000
opls_238-2    N    0.41372030    0.85452034    0.91591086    -0.25700000
opls_238-3    N    0.85451988    0.44080008    0.91591086    -0.25700000
opls_238-4    N    0.55920000    0.41372027    0.91591086    -0.25700000
opls_238-5    N    0.58627994    0.14548014    0.91591086    -0.25700000
opls_916-6    C    0.07219995    0.52956024    0.93748962    0.21330000
opls_145-7    C    0.04209997    0.57108999    0.94046018    -0.14110000
opls_700-8    C    0.97074984    0.54249000    0.94798971    0.08890000
opls_142-9    C    0.80537014    0.37316020    0.03837088    0.07770000
opls_700-10    C    0.74043000    0.35549991    0.12187073    -0.06180000
opls_231-11    C    0.71749006    0.40624009    0.16720060    0.19810000
opls_148-12    C    0.94196995    0.59011013    0.97152921    -0.39380000
opls_916-13    C    0.47044018    0.54264018    0.93748962    0.21330000
opls_145-14    C    0.42890991    0.47101007    0.94046018    -0.14110000
opls_700-15    C    0.45751021    0.42826002    0.94798971    0.08890000
opls_142-16    C    0.62684005    0.43221018    0.03837088    0.07770000
opls_700-17    C    0.64450000    0.38493002    0.12187073    -0.06180000
opls_231-18    C    0.59376003    0.31124997    0.16720060    0.19810000
opls_148-19    C    0.40989022    0.35186027    0.97152921    -0.39380000
opls_916-20    C    0.45736011    0.92780006    0.93748962    0.21330000
opls_145-21    C    0.52899012    0.95789995    0.94046018    -0.14110000
opls_700-22    C    0.57173995    0.02924998    0.94798971    0.08890000
opls_142-23    C    0.56779005    0.19463011    0.03837088    0.07770000
opls_700-24    C    0.61507000    0.25957007    0.12187073    -0.06180000
opls_231-25    C    0.68874991    0.28250994    0.16720060    0.19810000
opls_148-26    C    0.64814007    0.05803009    0.97152921    -0.39380000
opls_916-27    C    0.92780029    0.47044024    0.93748962    0.21330000
opls_145-28    C    0.95790003    0.42891001    0.94046018    -0.14110000
opls_700-29    C    0.02925016    0.45751000    0.94798971    0.08890000
opls_142-30    C    0.19463010    0.62684029    0.03837088    0.07770000
opls_700-31    C    0.25957000    0.64450009    0.12187073    -0.06180000
opls_231-32    C    0.28250994    0.59375991    0.16720060    0.19810000
opls_148-33    C    0.05803005    0.40988987    0.97152921    -0.39370000
opls_916-34    C    0.52956006    0.45736030    0.93748962    0.21330000
opls_145-35    C    0.57109009    0.52898993    0.94046018    -0.14100000
opls_700-36    C    0.54248979    0.57173998    0.94798971    0.08890000
opls_142-37    C    0.37316019    0.56779030    0.03837088    0.07770000
opls_700-38    C    0.35550000    0.61506998    0.12187073    -0.06170000
opls_231-39    C    0.40623997    0.68875003    0.16720060    0.19810000
opls_148-40    C    0.59011002    0.64814022    0.97152921    -0.39380000
opls_916-41    C    0.54263989    0.07219994    0.93748962    0.21330000
opls_145-42    C    0.47100988    0.04210005    0.94046018    -0.14110000
opls_700-43    C    0.42826005    0.97075002    0.94798971    0.08890000
opls_142-44    C    0.43220995    0.80536989    0.03837088    0.07770000
opls_700-45    C    0.38493000    0.74042993    0.12187073    -0.06180000
opls_231-46    C    0.31125009    0.71749006    0.16720060    0.19810000
opls_148-47    C    0.35185993    0.94196991    0.97152921    -0.39350000
opls_146-48    H    0.07361028    0.62608020    0.92983955    0.04570000
opls_144-49    H    0.81865012    0.33312987    0.03755926    0.03010000
opls_910-50    H    0.16424015    0.52935018    0.80195002    0.27060000
opls_702-51    H    0.89528993    0.56757010    0.14074947    0.09090000
opls_702-52    H    0.92759024    0.59903033    0.70430986    0.18930000
opls_702-53    H    0.97967996    0.64033987    0.08812043    0.09090000
opls_146-54    H    0.37392007    0.44752983    0.92983955    0.04570000
opls_144-55    H    0.66687000    0.48551988    0.03755926    0.03020000
opls_910-56    H    0.47065029    0.63489030    0.80195002    0.27120000
opls_702-57    H    0.43243001    0.32771990    0.14074947    0.09090000
opls_702-58    H    0.40097022    0.32856015    0.70430986    0.18930000
opls_702-59    H    0.35965980    0.33934002    0.08812043    0.09090000
opls_146-60    H    0.55247007    0.92638998    0.92983955    0.04580000
opls_144-61    H    0.51448031    0.18135025    0.03755926    0.03010000
opls_910-62    H    0.36510980    0.83576001    0.80195002    0.27120000
opls_702-63    H    0.67228006    0.10471000    0.14074947    0.09090000
opls_702-64    H    0.67144020    0.07241000    0.70430986    0.18930000
opls_702-65    H    0.66066023    0.02032012    0.08812043    0.09090000
opls_146-66    H    0.92638996    0.37392029    0.92983955    0.04570000
opls_144-67    H    0.18134988    0.66687013    0.03755926    0.03010000
opls_910-68    H    0.83576009    0.47065030    0.80195002    0.27050000
opls_702-69    H    0.10471007    0.43242990    0.14074947    0.09100000
opls_702-70    H    0.07241000    0.40097015    0.70430986    0.18930000
opls_702-71    H    0.02032004    0.35966013    0.08812043    0.09090000
opls_146-72    H    0.62607993    0.55247017    0.92983955    0.04570000
opls_144-73    H    0.33313000    0.51448012    0.03755926    0.03010000
opls_910-74    H    0.52934995    0.36511019    0.80195002    0.27120000
opls_702-75    H    0.56756999    0.67228010    0.14074947    0.09090000
opls_702-76    H    0.59903002    0.67144033    0.70430986    0.18930000
opls_702-77    H    0.64034020    0.66065998    0.08812043    0.09090000
opls_146-78    H    0.44752993    0.07361002    0.92983955    0.04570000
opls_144-79    H    0.48551994    0.81865024    0.03755926    0.03010000
opls_910-80    H    0.63489020    0.16423999    0.80195002    0.27130000
opls_702-81    H    0.32771994    0.89529000    0.14074947    0.09090000
opls_702-82    H    0.32855980    0.92759000    0.70430986    0.18930000
opls_702-83    H    0.33934001    0.97968037    0.08812043    0.09090000
opls_272-84    O    0.75802979    0.46499984    0.25664961    -0.44240000
opls_272-85    O    0.53500009    0.29303001    0.25664961    -0.44240000
opls_272-86    O    0.70697012    0.24197015    0.25664961    -0.44230000
opls_272-87    O    0.24197021    0.53500016    0.25664961    -0.44230000
opls_272-88    O    0.46499991    0.70696999    0.25664961    -0.44230000
opls_272-89    O    0.29303012    0.75803033    0.25664961    -0.44240000
