#======================================================================
# Crystal Data Generated By AuToFF
#----------------------------------------------------------------------

data_AuToFF_phase_1

_cell_length_a                         15.3886
_cell_length_b                         15.3409
_cell_length_c                         6.4263
_cell_angle_alpha                      90.00
_cell_angle_beta                       89.99
_cell_angle_gamma                      59.90
_symmetry_space_group_name_H-M_alt     'P 1'
_symmetry_space_group_IT_number        1

loop_
_space_group_symop_operation_xyz
   'x, y, z'

loop_
   _atom_site_label
   _atom_site_type_symbol
   _atom_site_fract_x
   _atom_site_fract_y
   _atom_site_fract_z
   _atom_site_charge
opls_700-0    C    0.34347014    0.13313010    0.99347992    -0.11190000
opls_280-1    C    0.41912046    0.16474963    0.99378025    0.46090000
opls_700-2    C    0.38386045    0.27331986    0.99376935    -0.08060000
opls_280-3    C    0.27645980    0.34952990    0.99336010    0.44880000
opls_700-4    C    0.20347001    0.31419953    0.99326051    -0.13000000
opls_280-5    C    0.23522029    0.20647017    0.99324028    0.44880000
opls_142-6    C    0.45766045    0.30111955    0.99931065    0.03450000
opls_142-7    C    0.37179022    0.03098954    0.99885004    0.03450000
opls_142-8    C    0.10161037    0.38799951    0.99868976    0.03450000
opls_141-9    C    0.48684973    0.52026960    0.00072048    0.55050000
opls_700-10    C    0.57086041    0.54317963    0.99927952    -0.02210000
opls_145-11    C    0.54275997    0.64573941    0.99922039    -0.05340000
opls_145-12    C    0.67344983    0.46985989    0.99917993    -0.04930000
opls_700-13    C    0.61556047    0.67545942    0.99948026    -0.02580000
opls_700-14    C    0.74754980    0.49799988    0.99943047    -0.02490000
opls_145-15    C    0.71781019    0.60089946    0.99931998    -0.05340000
opls_141-16    C    0.85491986    0.41431017    0.00100991    0.55080000
opls_141-17    C    0.59188001    0.78299974    0.00105971    0.55010000
opls_700-18    C    0.00398031    0.79924932    0.49000980    -0.08590000
opls_280-19    C    0.07577023    0.83619965    0.49005026    0.42470000
opls_700-20    C    0.03495979    0.94619997    0.49000980    -0.08590000
opls_280-21    C    0.92615053    0.01848970    0.48986042    0.38810000
opls_700-22    C    0.85727999    0.97766953    0.48989932    -0.08630000
opls_280-23    C    0.89430979    0.86849954    0.48998024    0.39570000
opls_142-24    C    0.10460008    0.97910947    0.49092946    0.02750000
opls_142-25    C    0.03744977    0.69620963    0.49104928    0.02750000
opls_142-26    C    0.75447018    0.04712023    0.49082053    0.02750000
opls_141-27    C    0.13344968    0.19989012    0.49380048    0.55090000
opls_700-28    C    0.22156007    0.21660971    0.49415994    -0.02400000
opls_145-29    C    0.19976996    0.31732951    0.49422996    -0.04930000
opls_145-30    C    0.32267042    0.13918958    0.49432022    -0.04930000
opls_700-31    C    0.27668987    0.34143989    0.49411948    -0.02390000
opls_700-32    C    0.40128019    0.16098982    0.49429065    -0.02410000
opls_145-33    C    0.37713017    0.26240959    0.49427042    -0.04930000
opls_141-34    C    0.50658033    0.07301955    0.49430932    0.55090000
opls_141-35    C    0.25942000    0.44688017    0.49361997    0.55050000
opls_144-36    H    0.54049036    0.24068970    0.00351057    0.03220000
opls_144-37    H    0.31190028    0.00803970    0.00262982    0.03220000
opls_144-38    H    0.07849024    0.47115983    0.00288969    0.03220000
opls_146-39    H    0.45989022    0.70613932    0.99896052    0.05460000
opls_146-40    H    0.69748037    0.38644963    0.99889050    0.05460000
opls_146-41    H    0.77794041    0.62355941    0.99910057    0.05460000
opls_144-42    H    0.18846006    0.92190957    0.49141030    0.03220000
opls_144-43    H    0.98085004    0.66892940    0.49155968    0.03220000
opls_144-44    H    0.73263013    0.12996012    0.49118933    0.03220000
opls_146-45    H    0.11838003    0.38136947    0.49437935    0.05460000
opls_146-46    H    0.34217013    0.05701956    0.49448049    0.05460000
opls_146-47    H    0.44087003    0.27995950    0.49437935    0.05460000
opls_750-48    N    0.43691954    0.39665021    0.00002957    -0.12770000
opls_750-49    N    0.46720988    0.95657959    0.99985995    -0.12750000
opls_750-50    N    0.51290980    0.41946011    0.01430995    -0.19100000
opls_750-51    N    0.49106980    0.85716935    0.01445933    -0.19100000
opls_750-52    N    0.02767059    0.36644945    0.99927952    -0.12770000
opls_750-53    N    0.92839972    0.44179006    0.01472076    -0.19100000
opls_750-54    N    0.08011039    0.07633995    0.49131071    -0.12710000
opls_750-55    N    0.13464002    0.62400958    0.49151923    -0.12710000
opls_750-56    N    0.15492034    0.10118959    0.49291038    -0.19320000
opls_750-57    N    0.16062990    0.52369001    0.49385027    -0.19210000
opls_750-58    N    0.68286998    0.02149011    0.49127025    -0.12710000
opls_750-59    N    0.58276010    0.09551971    0.49315936    -0.19300000
opls_272-60    O    0.39807037    0.58673937    0.99802063    -0.28760000
opls_272-61    O    0.87871031    0.32501969    0.99863996    -0.29950000
opls_272-62    O    0.65745999    0.80631961    0.99856994    -0.30750000
opls_281-63    O    0.24686020    0.44211975    0.99399032    -0.27110000
opls_281-64    O    0.51163028    0.10180001    0.99495044    -0.27040000
opls_281-65    O    0.17254989    0.17668013    0.99387984    -0.25560000
opls_272-66    O    0.04569003    0.27106022    0.49432955    -0.34270000
opls_272-67    O    0.52432970    0.98472989    0.49575028    -0.34400000
opls_272-68    O    0.32978026    0.46428992    0.49343012    -0.33440000
opls_281-69    O    0.89287049    0.11154969    0.48993978    -0.31620000
opls_281-70    O    0.16861032    0.77657958    0.49033970    -0.31620000
opls_281-71    O    0.83505002    0.83493985    0.49022921    -0.28740000
