#======================================================================
# Crystal Data Generated By AuToFF
#----------------------------------------------------------------------

data_AuToFF_phase_1

_cell_length_a                         40.3774
_cell_length_b                         32.4872
_cell_length_c                         6.7263
_cell_angle_alpha                      90.00
_cell_angle_beta                       90.00
_cell_angle_gamma                      90.00
_symmetry_space_group_name_H-M_alt     'P 1'
_symmetry_space_group_IT_number        1

loop_
_space_group_symop_operation_xyz
   'x, y, z'

loop_
   _atom_site_label
   _atom_site_type_symbol
   _atom_site_fract_x
   _atom_site_fract_y
   _atom_site_fract_z
   _atom_site_charge
opls_145-0    C    0.24801993    0.79215999    0.50000000    -0.26220000
opls_145-1    C    0.74801993    0.29215999    0.50000000    -0.26220000
opls_145-2    C    0.75198007    0.20784001    0.50000000    -0.26220000
opls_145-3    C    0.25198007    0.70784001    0.50000000    -0.25160000
opls_145-4    C    0.75198007    0.79215999    0.50000000    -0.26220000
opls_145-5    C    0.25198007    0.29215999    0.50000000    -0.25170000
opls_145-6    C    0.24801993    0.20784001    0.50000000    -0.26220000
opls_145-7    C    0.74801993    0.70784001    0.50000000    -0.26220000
opls_166-8    C    0.28163998    0.72996996    0.50000000    0.22940000
opls_166-9    C    0.78164988    0.22996996    0.50000000    0.22940000
opls_166-10    C    0.71836002    0.27003004    0.50000000    0.22890000
opls_166-11    C    0.21836002    0.77003004    0.50000000    0.22900000
opls_166-12    C    0.71836002    0.72996996    0.50000000    0.22890000
opls_166-13    C    0.21836002    0.22996996    0.50000000    0.22890000
opls_166-14    C    0.28163998    0.27003004    0.50000000    0.22950000
opls_166-15    C    0.78164988    0.77003004    0.50000000    0.22940000
opls_142-16    C    0.19305998    0.69447013    0.50000000    0.07310000
opls_142-17    C    0.69305998    0.19447013    0.50000000    0.07310000
opls_142-18    C    0.80694002    0.30552987    0.50000000    0.07550000
opls_142-19    C    0.30694002    0.80552987    0.50000000    0.07550000
opls_142-20    C    0.80694002    0.69447013    0.50000000    0.07550000
opls_142-21    C    0.30694002    0.19447013    0.50000000    0.07550000
opls_142-22    C    0.19305998    0.30552987    0.50000000    0.07310000
opls_142-23    C    0.69305998    0.80552987    0.50000000    0.07310000
opls_700-24    C    0.27980999    0.77419014    0.50000000    -0.03430000
opls_700-25    C    0.77980999    0.27419014    0.50000000    -0.03430000
opls_700-26    C    0.72019991    0.22580986    0.50000000    -0.03430000
opls_700-27    C    0.22019991    0.72580986    0.50000000    -0.03430000
opls_700-28    C    0.72019991    0.77419014    0.50000000    -0.03430000
opls_700-29    C    0.22019991    0.27419014    0.50000000    -0.03430000
opls_700-30    C    0.27980999    0.22580986    0.50000000    -0.03430000
opls_700-31    C    0.77980999    0.72580986    0.50000000    -0.03430000
opls_543-32    C    0.07501003    0.46545008    0.50000000    0.18410000
opls_543-33    C    0.57501003    0.96545008    0.50000000    0.18420000
opls_543-34    C    0.92498997    0.53454992    0.50000000    0.18410000
opls_543-35    C    0.42498997    0.03454992    0.50000000    0.18410000
opls_543-36    C    0.92498997    0.46545008    0.50000000    0.18410000
opls_543-37    C    0.42498997    0.96545008    0.50000000    0.18410000
opls_543-38    C    0.07501003    0.53454992    0.50000000    0.18420000
opls_543-39    C    0.57501003    0.03454992    0.50000000    0.18410000
opls_716-40    C    0.10784003    0.47836994    0.50000000    -0.17160000
opls_716-41    C    0.60784003    0.97836994    0.50000000    -0.17160000
opls_716-42    C    0.89215997    0.52163006    0.50000000    -0.17160000
opls_716-43    C    0.39215997    0.02163006    0.50000000    -0.17160000
opls_716-44    C    0.89215997    0.47836994    0.50000000    -0.17160000
opls_716-45    C    0.39215997    0.97836994    0.50000000    -0.17160000
opls_716-46    C    0.10784003    0.52163006    0.50000000    -0.17160000
opls_716-47    C    0.60784003    0.02163006    0.50000000    -0.17160000
opls_543-48    C    0.52914997    0.90722992    0.50000000    0.20770000
opls_543-49    C    0.02914997    0.40722992    0.50000000    0.20770000
opls_543-50    C    0.47085003    0.09277008    0.50000000    0.20770000
opls_543-51    C    0.97085003    0.59277008    0.50000000    0.20770000
opls_543-52    C    0.47085003    0.90722992    0.50000000    0.20770000
opls_543-53    C    0.97085003    0.40722992    0.50000000    0.20770000
opls_543-54    C    0.52914997    0.09277008    0.50000000    0.20770000
opls_543-55    C    0.02914997    0.59277008    0.50000000    0.20770000
opls_716-56    C    0.51672000    0.86451002    0.50000000    -0.19820000
opls_716-57    C    0.01672000    0.36451002    0.50000000    -0.19820000
opls_716-58    C    0.48328000    0.13548998    0.50000000    -0.19820000
opls_716-59    C    0.98328000    0.63548998    0.50000000    -0.19820000
opls_716-60    C    0.48328000    0.86451002    0.50000000    -0.19820000
opls_716-61    C    0.98328000    0.36451002    0.50000000    -0.19820000
opls_716-62    C    0.51672000    0.13548998    0.50000000    -0.19820000
opls_716-63    C    0.01672000    0.63548998    0.50000000    -0.19820000
opls_700-64    C    0.06181998    0.42083990    0.50000000    -0.13450000
opls_700-65    C    0.56181998    0.92083990    0.50000000    -0.13450000
opls_700-66    C    0.93818002    0.57916010    0.50000000    -0.13450000
opls_700-67    C    0.43818002    0.07916010    0.50000000    -0.13450000
opls_700-68    C    0.93818002    0.42083990    0.50000000    -0.13450000
opls_700-69    C    0.43818002    0.92083990    0.50000000    -0.13450000
opls_700-70    C    0.06181998    0.57916010    0.50000000    -0.13450000
opls_700-71    C    0.56181998    0.07916010    0.50000000    -0.13450000
opls_700-72    C    0.08762005    0.38877004    0.50000000    0.06860000
opls_700-73    C    0.58762005    0.88877004    0.50000000    0.06860000
opls_700-74    C    0.91237995    0.61122996    0.50000000    0.06860000
opls_700-75    C    0.41237995    0.11122996    0.50000000    0.06860000
opls_700-76    C    0.91237995    0.38877004    0.50000000    0.06860000
opls_700-77    C    0.41237995    0.88877004    0.50000000    0.06860000
opls_700-78    C    0.08762005    0.61122996    0.50000000    0.06860000
opls_700-79    C    0.58762005    0.11122996    0.50000000    0.06860000
opls_145-80    C    0.60000000    0.87354989    0.68026998    -0.11980000
opls_145-81    C    0.10000000    0.37354989    0.68026998    -0.11980000
opls_145-82    C    0.40000000    0.12645996    0.68026998    -0.11980000
opls_145-83    C    0.90000000    0.62645996    0.68026998    -0.11980000
opls_145-84    C    0.40000000    0.87354989    0.31971961    -0.11980000
opls_145-85    C    0.90000000    0.37354989    0.31971961    -0.11980000
opls_145-86    C    0.60000000    0.12645996    0.31971961    -0.11980000
opls_145-87    C    0.10000000    0.62645996    0.31971961    -0.11980000
opls_145-88    C    0.40000000    0.12645996    0.31971961    -0.11980000
opls_145-89    C    0.90000000    0.62645996    0.31971961    -0.11980000
opls_145-90    C    0.60000000    0.87354989    0.31971961    -0.11980000
opls_145-91    C    0.10000000    0.37354989    0.31971961    -0.11980000
opls_145-92    C    0.60000000    0.12645996    0.68026998    -0.11980000
opls_145-93    C    0.10000000    0.62645996    0.68026998    -0.11980000
opls_145-94    C    0.40000000    0.87354989    0.68026998    -0.11980000
opls_145-95    C    0.90000000    0.37354989    0.68026998    -0.11980000
opls_145-96    C    0.12461996    0.34322995    0.67992953    -0.16410000
opls_145-97    C    0.62461996    0.84322995    0.67992953    -0.16410000
opls_145-98    C    0.87538004    0.65677005    0.67992953    -0.16960000
opls_145-99    C    0.37538004    0.15677005    0.67992953    -0.16960000
opls_145-100    C    0.87538004    0.34322995    0.32006006    -0.16410000
opls_145-101    C    0.37538004    0.84322995    0.32006006    -0.16410000
opls_145-102    C    0.12461996    0.65677005    0.32006006    -0.16960000
opls_145-103    C    0.62461996    0.15677005    0.32006006    -0.16960000
opls_145-104    C    0.87538004    0.65677005    0.32006006    -0.16960000
opls_145-105    C    0.37538004    0.15677005    0.32006006    -0.16960000
opls_145-106    C    0.12461996    0.34322995    0.32006006    -0.16400000
opls_145-107    C    0.62461996    0.84322995    0.32006006    -0.16410000
opls_145-108    C    0.12461996    0.65677005    0.67992953    -0.16960000
opls_145-109    C    0.62461996    0.15677005    0.67992953    -0.16960000
opls_145-110    C    0.87538004    0.34322995    0.67992953    -0.16410000
opls_145-111    C    0.37538004    0.84322995    0.67992953    -0.16410000
opls_145-112    C    0.13704993    0.32822004    0.50000000    0.19440000
opls_145-113    C    0.63704993    0.82822004    0.50000000    0.19450000
opls_145-114    C    0.86295007    0.67177996    0.50000000    0.19440000
opls_145-115    C    0.36295007    0.17177996    0.50000000    0.19450000
opls_145-116    C    0.86295007    0.32822004    0.50000000    0.19440000
opls_145-117    C    0.36295007    0.82822004    0.50000000    0.19440000
opls_145-118    C    0.13704993    0.67177996    0.50000000    0.19450000
opls_145-119    C    0.63704993    0.17177996    0.50000000    0.19440000
opls_261-120    C    0.65847008    0.71506994    0.50000000    0.19210000
opls_925-121    C    0.62920990    0.72257997    0.50000000    -0.47840000
opls_261-122    C    0.15847008    0.21506994    0.50000000    0.19220000
opls_925-123    C    0.12920990    0.22257997    0.50000000    -0.47840000
opls_261-124    C    0.34152992    0.28493006    0.50000000    0.19210000
opls_925-125    C    0.37079010    0.27742003    0.50000000    -0.47840000
opls_261-126    C    0.84152992    0.78493006    0.50000000    0.19210000
opls_925-127    C    0.87079010    0.77742003    0.50000000    -0.47840000
opls_261-128    C    0.34152992    0.71506994    0.50000000    0.19210000
opls_925-129    C    0.37079010    0.72257997    0.50000000    -0.47830000
opls_261-130    C    0.84152992    0.21506994    0.50000000    0.19210000
opls_925-131    C    0.87079010    0.22257997    0.50000000    -0.47830000
opls_261-132    C    0.65847008    0.28493006    0.50000000    0.19210000
opls_925-133    C    0.62920990    0.27742003    0.50000000    -0.47820000
opls_261-134    C    0.15847008    0.78493006    0.50000000    0.19210000
opls_925-135    C    0.12920990    0.77742003    0.50000000    -0.47830000
opls_750-136    N    0.33807997    0.79698004    0.50000000    -0.29860000
opls_750-137    N    0.83807997    0.29698004    0.50000000    -0.29860000
opls_750-138    N    0.66192003    0.20301996    0.50000000    -0.29860000
opls_750-139    N    0.16192003    0.70301996    0.50000000    -0.29860000
opls_750-140    N    0.66192003    0.79698004    0.50000000    -0.29850000
opls_750-141    N    0.16192003    0.29698004    0.50000000    -0.29860000
opls_750-142    N    0.33807997    0.20301996    0.50000000    -0.29860000
opls_750-143    N    0.83807997    0.70301996    0.50000000    -0.29860000
opls_542-144    N    0.05691005    0.50000000    0.50000000    -0.28680000
opls_542-145    N    0.55691005    0.00000000    0.50000000    -0.28670000
opls_542-146    N    0.94308995    0.50000000    0.50000000    -0.28670000
opls_542-147    N    0.44308995    0.00000000    0.50000000    -0.28680000
opls_542-148    N    0.50000000    0.93140991    0.50000000    -0.30470000
opls_542-149    N    0.00000000    0.43140991    0.50000000    -0.30470000
opls_542-150    N    0.50000000    0.06859009    0.50000000    -0.30470000
opls_542-151    N    0.00000000    0.56859009    0.50000000    -0.30470000
opls_545-152    H    0.03315989    0.50000000    0.50000000    0.29360000
opls_545-153    H    0.53315989    0.00000000    0.50000000    0.29360000
opls_545-154    H    0.96684011    0.50000000    0.50000000    0.29360000
opls_545-155    H    0.46684011    0.00000000    0.50000000    0.29360000
opls_547-156    H    0.12948011    0.45876007    0.50000000    0.11790000
opls_547-157    H    0.62948011    0.95876007    0.50000000    0.11800000
opls_547-158    H    0.87051989    0.54123993    0.50000000    0.11790000
opls_547-159    H    0.37051989    0.04123993    0.50000000    0.11790000
opls_547-160    H    0.87051989    0.45876007    0.50000000    0.11790000
opls_547-161    H    0.37051989    0.95876007    0.50000000    0.11790000
opls_547-162    H    0.12948011    0.54123993    0.50000000    0.11790000
opls_547-163    H    0.62948011    0.04123993    0.50000000    0.11790000
opls_547-164    H    0.53190002    0.83708014    0.50000000    0.12180000
opls_547-165    H    0.03190002    0.33708014    0.50000000    0.12180000
opls_547-166    H    0.46809998    0.16291986    0.50000000    0.12180000
opls_547-167    H    0.96809998    0.66291986    0.50000000    0.12180000
opls_547-168    H    0.46809998    0.83708014    0.50000000    0.12180000
opls_547-169    H    0.96809998    0.33708014    0.50000000    0.12180000
opls_547-170    H    0.53190002    0.16291986    0.50000000    0.12180000
opls_547-171    H    0.03190002    0.66291986    0.50000000    0.12180000
opls_146-172    H    0.09054001    0.38518986    0.81992031    0.11980000
opls_146-173    H    0.59054001    0.88518986    0.81992031    0.11980000
opls_146-174    H    0.90945999    0.61481014    0.81992031    0.11680000
opls_146-175    H    0.40945999    0.11481014    0.81992031    0.11680000
opls_146-176    H    0.90945999    0.38518986    0.18007969    0.11980000
opls_146-177    H    0.40945999    0.88518986    0.18007969    0.11980000
opls_146-178    H    0.09054001    0.61481014    0.18007969    0.11680000
opls_146-179    H    0.59054001    0.11481014    0.18007969    0.11690000
opls_146-180    H    0.90945999    0.61481014    0.18007969    0.11690000
opls_146-181    H    0.40945999    0.11481014    0.18007969    0.11680000
opls_146-182    H    0.09054001    0.38518986    0.18007969    0.11980000
opls_146-183    H    0.59054001    0.88518986    0.18007969    0.11980000
opls_146-184    H    0.09054001    0.61481014    0.81992031    0.11690000
opls_146-185    H    0.59054001    0.11481014    0.81992031    0.11680000
opls_146-186    H    0.90945999    0.38518986    0.81992031    0.11980000
opls_146-187    H    0.40945999    0.88518986    0.81992031    0.11990000
opls_146-188    H    0.13420007    0.33128001    0.81844997    0.12070000
opls_146-189    H    0.63420007    0.83128001    0.81844997    0.12070000
opls_146-190    H    0.86579993    0.66871999    0.81844997    0.12070000
opls_146-191    H    0.36579993    0.16871999    0.81844997    0.12070000
opls_146-192    H    0.86579993    0.33128001    0.18153963    0.12070000
opls_146-193    H    0.36579993    0.83128001    0.18153963    0.12070000
opls_146-194    H    0.13420007    0.66871999    0.18153963    0.12070000
opls_146-195    H    0.63420007    0.16871999    0.18153963    0.12070000
opls_146-196    H    0.86579993    0.66871999    0.18153963    0.12070000
opls_146-197    H    0.36579993    0.16871999    0.18153963    0.12070000
opls_146-198    H    0.13420007    0.33128001    0.18153963    0.12080000
opls_146-199    H    0.63420007    0.83128001    0.18153963    0.12070000
opls_146-200    H    0.13420007    0.66871999    0.81844997    0.12070000
opls_146-201    H    0.63420007    0.16871999    0.81844997    0.12070000
opls_146-202    H    0.86579993    0.33128001    0.81844997    0.12070000
opls_146-203    H    0.36579993    0.83128001    0.81844997    0.12070000
opls_146-204    H    0.24552993    0.82539000    0.50000000    0.11650000
opls_144-205    H    0.20004012    0.66215002    0.50000000    0.10800000
opls_926-206    H    0.60367012    0.72949993    0.50000000    0.24480000
opls_146-207    H    0.74552993    0.32539000    0.50000000    0.11650000
opls_144-208    H    0.70004012    0.16215002    0.50000000    0.10800000
opls_926-209    H    0.10367012    0.22949993    0.50000000    0.24480000
opls_146-210    H    0.75447998    0.17461000    0.50000000    0.11570000
opls_144-211    H    0.79995988    0.33784998    0.50000000    0.10800000
opls_926-212    H    0.39632988    0.27050007    0.50000000    0.24480000
opls_146-213    H    0.25447998    0.67461000    0.50000000    0.11560000
opls_144-214    H    0.29995988    0.83784998    0.50000000    0.10800000
opls_926-215    H    0.89632988    0.77050007    0.50000000    0.24490000
opls_146-216    H    0.75447998    0.82539000    0.50000000    0.11560000
opls_144-217    H    0.79995988    0.66215002    0.50000000    0.10800000
opls_926-218    H    0.39632988    0.72949993    0.50000000    0.24480000
opls_146-219    H    0.25447998    0.32539000    0.50000000    0.11560000
opls_144-220    H    0.29995988    0.16215002    0.50000000    0.10800000
opls_926-221    H    0.89632988    0.22949993    0.50000000    0.24480000
opls_146-222    H    0.24552993    0.17461000    0.50000000    0.11650000
opls_144-223    H    0.20004012    0.33784998    0.50000000    0.10800000
opls_926-224    H    0.60367012    0.27050007    0.50000000    0.24480000
opls_146-225    H    0.74552993    0.67461000    0.50000000    0.11660000
opls_144-226    H    0.70004012    0.83784998    0.50000000    0.10800000
opls_926-227    H    0.10367012    0.77050007    0.50000000    0.24480000
opls_545-228    H    0.50000000    0.96106005    0.50000000    0.29350000
opls_545-229    H    0.00000000    0.46106005    0.50000000    0.29360000
opls_545-230    H    0.50000000    0.03893995    0.50000000    0.29350000
opls_545-231    H    0.00000000    0.53893995    0.50000000    0.29360000
opls_180-232    O    0.30916998    0.70303012    0.50000000    -0.18990000
opls_180-233    O    0.80916998    0.20303012    0.50000000    -0.18990000
opls_180-234    O    0.69083993    0.29696988    0.50000000    -0.18330000
opls_180-235    O    0.19083993    0.79696988    0.50000000    -0.18320000
opls_180-236    O    0.69083993    0.70303012    0.50000000    -0.18330000
opls_180-237    O    0.19083993    0.20303012    0.50000000    -0.18330000
opls_180-238    O    0.30916998    0.29696988    0.50000000    -0.18990000
opls_180-239    O    0.80916998    0.79696988    0.50000000    -0.18990000
