#======================================================================
# Crystal Data Generated By AuToFF
#----------------------------------------------------------------------

data_AuToFF_phase_1

_cell_length_a                         25.4926
_cell_length_b                         25.1608
_cell_length_c                         6.3067
_cell_angle_alpha                      90.00
_cell_angle_beta                       90.00
_cell_angle_gamma                      120.00
_symmetry_space_group_name_H-M_alt     'P 1'
_symmetry_space_group_IT_number        1

loop_
_space_group_symop_operation_xyz
   'x, y, z'

loop_
   _atom_site_label
   _atom_site_type_symbol
   _atom_site_fract_x
   _atom_site_fract_y
   _atom_site_fract_z
   _atom_site_charge
opls_145-0    C    0.10705993    0.26165988    0.16377979    0.22240000
opls_145-1    C    0.14127000    0.23194013    0.15287076    -0.12270000
opls_523-2    C    0.11424008    0.16899994    0.14359015    -0.08050000
opls_700-3    C    0.04980996    0.13210989    0.14513930    0.06050000
opls_523-4    C    0.01490994    0.16213024    0.15276928    -0.08280000
opls_145-5    C    0.04342026    0.22523014    0.16273011    -0.11700000
opls_531-6    C    0.93649010    0.97547991    0.14926031    0.44200000
opls_531-7    C    0.02832983    0.98204993    0.14404998    0.44200000
opls_531-8    C    0.02185003    0.06852995    0.14378994    0.44200000
opls_145-9    C    0.74597996    0.86864000    0.17981036    0.22290000
opls_145-10    C    0.78193987    0.84061003    0.17508998    -0.11700000
opls_523-11    C    0.84418010    0.87485022    0.16264925    -0.08270000
opls_700-12    C    0.87377005    0.94023008    0.15568998    0.06050000
opls_523-13    C    0.83735021    0.96861021    0.15872009    -0.08050000
opls_145-14    C    0.77527008    0.93302995    0.17039973    -0.12290000
opls_700-15    C    0.06313993    0.95374001    0.14541044    0.06050000
opls_523-16    C    0.03514992    0.88847993    0.15017997    -0.08050000
opls_145-17    C    0.07033023    0.86118012    0.15888975    -0.12290000
opls_145-18    C    0.13393008    0.89590998    0.16293941    0.21920000
opls_145-19    C    0.16157017    0.96036006    0.15575023    -0.11700000
opls_523-20    C    0.12771011    0.98915001    0.14639986    -0.08280000
opls_142-21    C    0.22470024    0.88670021    0.20110042    -0.02680000
opls_521-22    C    0.24773026    0.84448017    0.21639051    0.19490000
opls_521-23    C    0.22971028    0.74364028    0.21004012    0.08310000
opls_700-24    C    0.29012011    0.76167021    0.24787924    0.03610000
opls_523-25    C    0.33043987    0.82576002    0.26850017    -0.09900000
opls_522-26    C    0.30932990    0.86613012    0.25308006    -0.17580000
opls_700-27    C    0.30903998    0.71601004    0.26142039    0.07680000
opls_145-28    C    0.37074018    0.73339012    0.26794996    -0.06150000
opls_700-29    C    0.39164001    0.69114989    0.26856993    0.07920000
opls_145-30    C    0.34715990    0.62858004    0.27009054    -0.06150000
opls_700-31    C    0.28462017    0.60752028    0.26376076    0.07870000
opls_145-32    C    0.26734012    0.65260999    0.26279037    -0.06150000
opls_700-33    C    0.45568996    0.71047995    0.26156944    0.03700000
opls_521-34    C    0.49825017    0.77133019    0.21773035    0.08310000
opls_145-35    C    0.48126992    0.89664014    0.77149064    -0.14600000
opls_523-36    C    0.45267991    0.83355997    0.76772956    -0.08050000
opls_700-37    C    0.38816022    0.79835006    0.76456943    0.05800000
opls_523-38    C    0.35474993    0.82992021    0.76296954    -0.08050000
opls_145-39    C    0.38477981    0.89308987    0.76501023    -0.11860000
opls_531-40    C    0.27194997    0.64321022    0.76240030    0.43880000
opls_531-41    C    0.36231013    0.64696013    0.76853029    0.43920000
opls_531-42    C    0.35859994    0.73476002    0.76449015    0.43880000
opls_145-43    C    0.08139996    0.54065027    0.78517925    0.22310000
opls_145-44    C    0.11605997    0.51123021    0.78704077    -0.11860000
opls_523-45    C    0.17830991    0.54411014    0.77563068    -0.08050000
opls_700-46    C    0.20917998    0.60942988    0.76383053    0.05800000
opls_523-47    C    0.17415986    0.63927996    0.75868996    -0.08050000
opls_145-48    C    0.11195002    0.60500994    0.76914076    -0.11880000
opls_700-49    C    0.39550009    0.61699990    0.77271949    0.06140000
opls_523-50    C    0.36583009    0.55167006    0.76459955    -0.08050000
opls_145-51    C    0.39947019    0.52268001    0.77065026    -0.12300000
opls_145-52    C    0.46296004    0.55584998    0.78701064    0.22250000
opls_145-53    C    0.49222006    0.62036018    0.79371938    -0.11860000
opls_523-54    C    0.45996019    0.65081008    0.78568031    -0.08050000
opls_142-55    C    0.54751017    0.54160026    0.87902072    -0.02650000
opls_521-56    C    0.57349007    0.50186027    0.86752977    0.17040000
opls_521-57    C    0.56863001    0.41224026    0.73902992    0.08320000
opls_700-58    C    0.62157997    0.42417011    0.84388983    0.02850000
opls_523-59    C    0.65138005    0.47915019    0.96502925    -0.09870000
opls_522-60    C    0.62719985    0.51699986    0.97597000    -0.15290000
opls_700-61    C    0.64280019    0.38097026    0.82905957    0.09440000
opls_145-62    C    0.70485011    0.40024020    0.85023071    -0.04970000
opls_700-63    C    0.72727996    0.35912985    0.84356002    0.09440000
opls_145-64    C    0.68449978    0.29615982    0.82149936    -0.04980000
opls_700-65    C    0.62186989    0.27394998    0.79797993    0.09760000
opls_145-66    C    0.60256018    0.31760004    0.79980973    -0.04980000
opls_700-67    C    0.79114000    0.38023001    0.85233958    0.02860000
opls_521-68    C    0.83248011    0.43852998    0.77643934    0.08160000
opls_521-69    C    0.57995025    0.75363024    0.23962928    0.18750000
opls_522-70    C    0.53978997    0.69162029    0.28340971    -0.15850000
opls_523-71    C    0.47874017    0.67009012    0.29377963    -0.09900000
opls_700-72    C    0.23968011    0.54274023    0.25263926    0.03570000
opls_521-73    C    0.25726996    0.49987999    0.20518021    0.08310000
opls_521-74    C    0.15815024    0.41695025    0.22536984    0.18360000
opls_522-75    C    0.13700990    0.45740984    0.27215977    -0.15500000
opls_523-76    C    0.17675028    0.51923025    0.28510949    -0.09900000
opls_142-77    C    0.11649999    0.35134000    0.21226949    0.02050000
opls_142-78    C    0.64473980    0.77710993    0.22839996    0.06680000
opls_145-79    C    0.44848026    0.92792024    0.76925016    0.22300000
opls_521-80    C    0.91581003    0.42713020    0.85920053    0.16960000
opls_522-81    C    0.87688016    0.36796010    0.93726037    -0.15340000
opls_523-82    C    0.81539013    0.34433997    0.93426039    -0.09860000
opls_700-83    C    0.57914980    0.20958986    0.77167933    0.02860000
opls_521-84    C    0.59199989    0.16613989    0.85614981    0.08310000
opls_521-85    C    0.50172013    0.08377004    0.72774034    0.17040000
opls_522-86    C    0.48566004    0.12484001    0.63984968    -0.15290000
opls_523-87    C    0.52341019    0.18689998    0.66080042    -0.09850000
opls_142-88    C    0.46204017    0.01801019    0.70574944    0.02050000
opls_142-89    C    0.98094995    0.45231986    0.86195950    0.06680000
opls_520-90    N    0.96104002    0.03676980    0.14763030    -0.34330000
opls_520-91    N    0.96785017    0.94563029    0.14802987    -0.34320000
opls_520-92    N    0.05779019    0.04366016    0.14206003    -0.34480000
opls_750-93    N    0.68237011    0.83517998    0.19341018    -0.25900000
opls_750-94    N    0.16701002    0.86495021    0.17465077    -0.25100000
opls_520-95    N    0.20954981    0.78371988    0.19494982    -0.25240000
opls_520-96    N    0.29784995    0.70456023    0.76100972    -0.28620000
opls_520-97    N    0.30176990    0.61187000    0.76556995    -0.28640000
opls_520-98    N    0.39325028    0.70851023    0.76948008    -0.28630000
opls_750-99    N    0.01778989    0.50813015    0.79699050    -0.25950000
opls_750-100    N    0.49500994    0.52384982    0.79350056    -0.26120000
opls_520-101    N    0.54576021    0.45001007    0.75089032    -0.25240000
opls_520-102    N    0.55803994    0.79183006    0.20698939    -0.24990000
opls_520-103    N    0.21778017    0.43933999    0.19194032    -0.25240000
opls_750-104    N    0.13771000    0.32614988    0.17580034    -0.15780000
opls_520-105    N    0.89257006    0.46082013    0.78014968    -0.25260000
opls_520-106    N    0.55438979    0.10550994    0.83442054    -0.25260000
opls_750-107    N    0.48014989    0.99241988    0.77329031    -0.15930000
opls_146-108    H    0.19276015    0.26145015    0.15180998    0.04720000
opls_526-109    H    0.14333989    0.14637981    0.13468058    0.04720000
opls_526-110    H    0.96332971    0.13390981    0.15063028    0.04720000
opls_146-111    H    0.01542991    0.24908019    0.17035058    0.04720000
opls_146-112    H    0.75844013    0.78838994    0.18180982    0.04720000
opls_526-113    H    0.87213988    0.85095014    0.15788923    0.04720000
opls_526-114    H    0.85967011    0.02073989    0.15145956    0.04720000
opls_146-115    H    0.74613988    0.95567990    0.17264972    0.04720000
opls_526-116    H    0.98368008    0.85892999    0.14678041    0.04720000
opls_146-117    H    0.04799016    0.80903024    0.16301077    0.04720000
opls_146-118    H    0.21305028    0.98989027    0.15760065    0.04720000
opls_526-119    H    0.15126019    0.04136001    0.13944059    0.04720000
opls_144-120    H    0.25658013    0.93839024    0.21203958    0.02780000
opls_524-121    H    0.19677019    0.69237018    0.19162002    0.02780000
opls_526-122    H    0.38069011    0.84390008    0.29804969    0.04720000
opls_146-123    H    0.40449025    0.78476027    0.27290025    0.04720000
opls_146-124    H    0.36113987    0.59208009    0.27672000    0.04720000
opls_146-125    H    0.21730012    0.63843002    0.26309956    0.04720000
opls_524-126    H    0.48047997    0.80431016    0.19034995    0.02780000
opls_525-127    H    0.55787010    0.65888997    0.31053958    0.04720000
opls_526-128    H    0.44615998    0.61951988    0.32840947    0.04720000
opls_524-129    H    0.30759012    0.51805998    0.17700065    0.02780000
opls_525-130    H    0.08660015    0.43890997    0.29958933    0.04720000
opls_526-131    H    0.15933999    0.55205006    0.32207969    0.04720000
opls_144-132    H    0.06582025    0.33242022    0.23391948    0.02780000
opls_144-133    H    0.66339989    0.74467012    0.25020058    0.02780000
opls_525-134    H    0.34194989    0.91750991    0.27013018    0.04720000
opls_146-135    H    0.53283008    0.92488030    0.77655985    0.04720000
opls_526-136    H    0.48058012    0.80955985    0.76716032    0.04720000
opls_526-137    H    0.30314010    0.80285995    0.75999017    0.04720000
opls_146-138    H    0.35801996    0.91827999    0.76326922    0.04720000
opls_146-139    H    0.09149005    0.45902985    0.79830022    0.04720000
opls_526-140    H    0.20526002    0.51911001    0.77561007    0.04720000
opls_526-141    H    0.19766986    0.69140000    0.74594955    0.04720000
opls_146-142    H    0.08382995    0.62874021    0.76487069    0.04720000
opls_526-143    H    0.31436019    0.52346019    0.75311970    0.04720000
opls_146-144    H    0.37589018    0.47048012    0.76233054    0.04720000
opls_146-145    H    0.54367990    0.64850993    0.80606974    0.04720000
opls_526-146    H    0.48479984    0.70309992    0.78937955    0.04720000
opls_144-147    H    0.57274008    0.58798002    0.96208952    0.02780000
opls_524-148    H    0.54460014    0.36849016    0.64039989    0.02780000
opls_526-149    H    0.69517987    0.49156008    0.05246008    0.04720000
opls_146-150    H    0.73734978    0.45141990    0.87356938    0.04720000
opls_146-151    H    0.70007000    0.26084023    0.82223033    0.04720000
opls_146-152    H    0.55259016    0.30220024    0.77704980    0.04720000
opls_524-153    H    0.81350985    0.46755996    0.70942014    0.02780000
opls_525-154    H    0.89631990    0.33927018    0.00358983    0.04720000
opls_526-155    H    0.78392988    0.29614009    0.99726957    0.04720000
opls_524-156    H    0.63639007    0.18383021    0.94649024    0.02780000
opls_525-157    H    0.44105998    0.10666002    0.55051929    0.04720000
opls_526-158    H    0.51008995    0.22010024    0.58947944    0.04720000
opls_144-159    H    0.41550995    0.99924001    0.62980005    0.02780000
opls_144-160    H    0.00071009    0.42316001    0.92080962    0.02780000
opls_525-161    H    0.65075988    0.56097989    0.07353925    0.04720000
