#======================================================================
# Crystal Data Generated By AuToFF
#----------------------------------------------------------------------

data_AuToFF_phase_1

_cell_length_a                         28.2567
_cell_length_b                         28.2567
_cell_length_c                         3.4701
_cell_angle_alpha                      90.00
_cell_angle_beta                       90.00
_cell_angle_gamma                      120.00
_symmetry_space_group_name_H-M_alt     'P 1'
_symmetry_space_group_IT_number        1

loop_
_space_group_symop_operation_xyz
   'x, y, z'

loop_
   _atom_site_label
   _atom_site_type_symbol
   _atom_site_fract_x
   _atom_site_fract_y
   _atom_site_fract_z
   _atom_site_charge
opls_530-0    N    0.25648012    0.67933989    0.50000000    -0.39530000
opls_530-1    N    0.24432984    0.58906985    0.50000000    -0.39500000
opls_750-2    N    0.52050995    0.47972009    0.50000000    -0.28360000
opls_530-3    N    0.32066000    0.57713982    0.50000000    -0.39530000
opls_530-4    N    0.41092988    0.65525998    0.50000000    -0.39500000
opls_750-5    N    0.52027992    0.04078988    0.50000000    -0.28360000
opls_530-6    N    0.42286004    0.74351989    0.50000000    -0.39410000
opls_530-7    N    0.34473993    0.75567018    0.50000000    -0.39500000
opls_750-8    N    0.95921013    0.47949003    0.50000000    -0.28360000
opls_239-9    N    0.33332995    0.66666980    0.50000000    -0.21760000
opls_642-10    C    0.22508988    0.62428007    0.50000000    0.37470000
opls_531-11    C    0.29895993    0.61014988    0.50000000    0.48450000
opls_700-12    C    0.43564989    0.83497991    0.50000000    -0.00790000
opls_523-13    C    0.49246000    0.85807008    0.50000000    -0.12280000
opls_145-14    C    0.52632011    0.91414988    0.50000000    -0.11440000
opls_700-15    C    0.50470983    0.94923996    0.50000000    0.05440000
opls_145-16    C    0.44781023    0.92596018    0.50000000    -0.12660000
opls_523-17    C    0.41394982    0.86994984    0.50000000    -0.12510000
opls_142-18    C    0.46795009    0.45908017    0.50000000    0.08870000
opls_145-19    C    0.54499984    0.44673986    0.50000000    0.20340000
opls_145-20    C    0.51802999    0.38947988    0.50000000    -0.16450000
opls_145-21    C    0.54741008    0.36232981    0.50000000    -0.11490000
opls_700-22    C    0.60473009    0.39015006    0.50000000    0.06830000
opls_145-23    C    0.63114001    0.44732994    0.50000000    -0.12430000
opls_145-24    C    0.60222983    0.47477996    0.50000000    -0.15820000
opls_700-25    C    0.63651010    0.36085991    0.50000000    0.06380000
opls_145-26    C    0.61013012    0.30380998    0.50000000    -0.17190000
opls_642-27    C    0.37571981    0.60080986    0.50000000    0.37480000
opls_531-28    C    0.38985008    0.68880987    0.50000000    0.48450000
opls_700-29    C    0.16501989    0.60067010    0.50000000    -0.00790000
opls_523-30    C    0.14193001    0.63438998    0.50000000    -0.12280000
opls_145-31    C    0.08585006    0.61216982    0.50000000    -0.11440000
opls_700-32    C    0.05076021    0.55547010    0.50000000    0.05440000
opls_145-33    C    0.07404008    0.52184993    0.50000000    -0.12660000
opls_523-34    C    0.13004985    0.54399980    0.50000000    -0.12510000
opls_142-35    C    0.54092019    0.00887008    0.50000000    0.08870000
opls_145-36    C    0.55325994    0.09825990    0.50000000    0.20340000
opls_145-37    C    0.61051997    0.12855002    0.50000000    -0.16430000
opls_145-38    C    0.63766990    0.18508015    0.50000000    -0.11490000
opls_700-39    C    0.60985007    0.21457994    0.50000000    0.06830000
opls_145-40    C    0.55267009    0.18381007    0.50000000    -0.12430000
opls_145-41    C    0.52522012    0.12744994    0.50000000    -0.15820000
opls_700-42    C    0.63914015    0.27565014    0.50000000    0.06380000
opls_145-43    C    0.69619009    0.30631988    0.50000000    -0.17190000
opls_642-44    C    0.39918995    0.77491008    0.50000000    0.37480000
opls_531-45    C    0.31118978    0.70103984    0.50000000    0.48470000
opls_700-46    C    0.39932987    0.56434999    0.50000000    -0.00790000
opls_523-47    C    0.36560999    0.50753994    0.50000000    -0.12280000
opls_145-48    C    0.38782997    0.47367989    0.50000000    -0.11440000
opls_700-49    C    0.44452996    0.49528994    0.50000000    0.05440000
opls_145-50    C    0.47815004    0.55218990    0.50000000    -0.12660000
opls_523-51    C    0.45600013    0.58604995    0.50000000    -0.12510000
opls_142-52    C    0.99112992    0.53205016    0.50000000    0.08870000
opls_145-53    C    0.90174001    0.45499983    0.50000000    0.20350000
opls_145-54    C    0.87145004    0.48197010    0.50000000    -0.16450000
opls_145-55    C    0.81492002    0.45259004    0.50000000    -0.11490000
opls_700-56    C    0.78541984    0.39527000    0.50000000    0.06830000
opls_145-57    C    0.81618989    0.36885998    0.50000000    -0.12430000
opls_145-58    C    0.87255006    0.39777010    0.50000000    -0.15820000
opls_700-59    C    0.72435010    0.36348996    0.50000000    0.06380000
opls_145-60    C    0.69368015    0.38987014    0.50000000    -0.17190000
opls_526-61    H    0.50973990    0.83106998    0.50000000    0.10990000
opls_146-62    H    0.57066999    0.93150020    0.50000000    0.11240000
opls_146-63    H    0.43068003    0.95308982    0.50000000    0.11090000
opls_526-64    H    0.36958994    0.85212018    0.50000000    0.10950000
opls_144-65    H    0.43814004    0.41412986    0.50000000    0.04620000
opls_146-66    H    0.47344009    0.36544002    0.50000000    0.11090000
opls_146-67    H    0.52442994    0.31771009    0.50000000    0.10950000
opls_146-68    H    0.67566001    0.47155983    0.50000000    0.10920000
opls_146-69    H    0.62420990    0.51938987    0.50000000    0.11070000
opls_146-70    H    0.56562006    0.28068998    0.50000000    0.10940000
opls_526-71    H    0.16893016    0.67867012    0.50000000    0.10990000
opls_146-72    H    0.06850009    0.63916992    0.50000000    0.11240000
opls_146-73    H    0.04690980    0.47758982    0.50000000    0.11090000
opls_526-74    H    0.14787990    0.51747005    0.50000000    0.10950000
opls_144-75    H    0.58586998    0.02401003    0.50000000    0.04620000
opls_146-76    H    0.63456001    0.10799999    0.50000000    0.11090000
opls_146-77    H    0.68228997    0.20672003    0.50000000    0.10950000
opls_146-78    H    0.52843995    0.20410020    0.50000000    0.10920000
opls_146-79    H    0.48060999    0.10481991    0.50000000    0.11070000
opls_146-80    H    0.71931018    0.28493009    0.50000000    0.10940000
opls_526-81    H    0.32132993    0.49025991    0.50000000    0.10990000
opls_146-82    H    0.36082992    0.42932988    0.50000000    0.11240000
opls_146-83    H    0.52240996    0.56931995    0.50000000    0.11090000
opls_526-84    H    0.48253001    0.63041017    0.50000000    0.10950000
opls_144-85    H    0.97598999    0.56186011    0.50000000    0.04620000
opls_146-86    H    0.89199991    0.52655999    0.50000000    0.11090000
opls_146-87    H    0.79328010    0.47556988    0.50000000    0.10950000
opls_146-88    H    0.79590004    0.32433997    0.50000000    0.10920000
opls_146-89    H    0.89517990    0.37578981    0.50000000    0.11070000
opls_146-90    H    0.71507011    0.43437993    0.50000000    0.10940000
