#======================================================================
# Crystal Data Generated By AuToFF
#----------------------------------------------------------------------

data_AuToFF_phase_1

_cell_length_a                         31.4500
_cell_length_b                         29.2500
_cell_length_c                         4.6500
_cell_angle_alpha                      90.00
_cell_angle_beta                       90.00
_cell_angle_gamma                      90.00
_symmetry_space_group_name_H-M_alt     'P 1'
_symmetry_space_group_IT_number        1

loop_
_space_group_symop_operation_xyz
   'x, y, z'

loop_
   _atom_site_label
   _atom_site_type_symbol
   _atom_site_fract_x
   _atom_site_fract_y
   _atom_site_fract_z
   _atom_site_charge
opls_526-0    H    0.44709984    0.59634017    0.13464946    0.11470000
opls_146-1    H    0.38548013    0.64708000    0.11790968    0.11560000
opls_146-2    H    0.32690016    0.56976000    0.80223011    0.11460000
opls_526-3    H    0.38799014    0.51916991    0.80936989    0.24090000
opls_146-4    H    0.35153005    0.70543009    0.37535914    0.11320000
opls_146-5    H    0.29137997    0.75791009    0.39466022    0.11750000
opls_146-6    H    0.20713005    0.64531009    0.57913978    0.11590000
opls_146-7    H    0.26684992    0.59228991    0.54666022    0.11950000
opls_144-8    H    0.17795994    0.72332000    0.58973978    0.10390000
opls_547-9    H    0.15057011    0.96487009    0.72741935    0.10940000
opls_547-10    H    0.04188998    0.82407009    0.46089892    0.12010000
opls_146-11    H    0.14468998    0.90854017    0.11532903    0.11840000
opls_146-12    H    0.20266995    0.85263009    0.10927957    0.11450000
opls_146-13    H    0.14537997    0.78232991    0.82367097    0.11560000
opls_146-14    H    0.09022989    0.84080000    0.85087097    0.11450000
opls_526-15    H    0.55290016    0.40366017    0.13464946    0.11470000
opls_146-16    H    0.61451987    0.35292000    0.11790968    0.11570000
opls_146-17    H    0.67309984    0.43024000    0.80223011    0.11460000
opls_526-18    H    0.61200986    0.48083009    0.80936989    0.24080000
opls_146-19    H    0.64846995    0.29456991    0.37535914    0.11320000
opls_146-20    H    0.70862003    0.24208991    0.39466022    0.11750000
opls_146-21    H    0.79286995    0.35468991    0.57913978    0.11590000
opls_146-22    H    0.73315008    0.40771009    0.54666022    0.11950000
opls_144-23    H    0.82204006    0.27668000    0.58973978    0.10390000
opls_547-24    H    0.84942989    0.03512991    0.72741935    0.10940000
opls_547-25    H    0.95811002    0.17592991    0.46089892    0.12010000
opls_146-26    H    0.85531002    0.09146017    0.11532903    0.11840000
opls_146-27    H    0.79733005    0.14736991    0.10927957    0.11450000
opls_146-28    H    0.85462989    0.21767009    0.82367097    0.11550000
opls_146-29    H    0.90977011    0.15920000    0.85087097    0.11450000
opls_526-30    H    0.55290016    0.59634017    0.86535054    0.11470000
opls_146-31    H    0.61451987    0.64708000    0.88209032    0.11560000
opls_146-32    H    0.67309984    0.56976000    0.19776989    0.11460000
opls_526-33    H    0.61200986    0.51916991    0.19063011    0.24080000
opls_146-34    H    0.64846995    0.70543009    0.62464086    0.11320000
opls_146-35    H    0.70862003    0.75791009    0.60533978    0.11750000
opls_146-36    H    0.79286995    0.64531009    0.42086022    0.11590000
opls_146-37    H    0.73315008    0.59228991    0.45333978    0.11950000
opls_144-38    H    0.82204006    0.72332000    0.41026022    0.10390000
opls_547-39    H    0.84942989    0.96487009    0.27258065    0.10940000
opls_547-40    H    0.95811002    0.82407009    0.53910108    0.12010000
opls_146-41    H    0.85531002    0.90854017    0.88467097    0.11840000
opls_146-42    H    0.79733005    0.85263009    0.89072043    0.11450000
opls_146-43    H    0.85462989    0.78232991    0.17632903    0.11550000
opls_146-44    H    0.90977011    0.84080000    0.14912903    0.11450000
opls_526-45    H    0.44709984    0.40366017    0.86535054    0.11470000
opls_146-46    H    0.38548013    0.35292000    0.88209032    0.11560000
opls_146-47    H    0.32690016    0.43024000    0.19776989    0.11460000
opls_526-48    H    0.38799014    0.48083009    0.19063011    0.24080000
opls_146-49    H    0.35153005    0.29456991    0.62464086    0.11320000
opls_146-50    H    0.29137997    0.24208991    0.60533978    0.11750000
opls_146-51    H    0.20713005    0.35468991    0.42086022    0.11590000
opls_146-52    H    0.26684992    0.40771009    0.45333978    0.11950000
opls_144-53    H    0.17795994    0.27668000    0.41026022    0.10390000
opls_547-54    H    0.15057011    0.03512991    0.27258065    0.10940000
opls_547-55    H    0.04188998    0.17592991    0.53910108    0.12010000
opls_146-56    H    0.14468998    0.09146017    0.88467097    0.11840000
opls_146-57    H    0.20266995    0.14736991    0.89072043    0.11450000
opls_146-58    H    0.14537997    0.21767009    0.17632903    0.11550000
opls_146-59    H    0.09022989    0.15920000    0.14912903    0.11450000
opls_521-60    C    0.46091987    0.52427009    0.49230968    0.12520000
opls_700-61    C    0.42217997    0.55331009    0.47361075    0.02730000
opls_523-62    C    0.42088013    0.59024000    0.28067097    -0.13200000
opls_145-63    C    0.38568998    0.61944991    0.27243011    -0.13070000
opls_700-64    C    0.35104006    0.61262017    0.45867957    0.06490000
opls_145-65    C    0.35239014    0.57556991    0.65024946    -0.12090000
opls_523-66    C    0.38755008    0.54654017    0.65727957    -0.13690000
opls_700-67    C    0.31415994    0.64452991    0.45990108    0.06660000
opls_145-68    C    0.32011002    0.69163009    0.41429032    -0.13140000
opls_145-69    C    0.28568998    0.72180000    0.42763011    -0.12830000
opls_700-70    C    0.24464992    0.70556000    0.48961935    0.05980000
opls_145-71    C    0.23853990    0.65863009    0.53270968    -0.12020000
opls_145-72    C    0.27282003    0.62837983    0.51604086    -0.13070000
opls_142-73    C    0.20804006    0.73687009    0.51461075    0.06960000
opls_700-74    C    0.07764006    0.91405983    0.48950968    -0.13680000
opls_507-75    C    0.09144992    0.96276991    0.50104086    0.17670000
opls_716-76    C    0.13755994    0.97456991    0.51453978    -0.13110000
opls_716-77    C    0.02255994    0.85431009    0.48567957    -0.17760000
opls_507-78    C    0.03466995    0.89976991    0.49107957    0.18140000
opls_700-79    C    0.11231002    0.87878017    0.48050968    0.06660000
opls_145-80    C    0.14486995    0.88160000    0.27433978    -0.12070000
opls_145-81    C    0.17777997    0.84954017    0.26881935    -0.16510000
opls_145-82    C    0.17762989    0.81249983    0.45789032    0.19560000
opls_145-83    C    0.14540986    0.80950017    0.66627097    -0.17070000
opls_145-84    C    0.11377997    0.84297983    0.68170968    -0.12940000
opls_521-85    C    0.53908013    0.47572991    0.49230968    0.12520000
opls_700-86    C    0.57782003    0.44668991    0.47361075    0.02730000
opls_523-87    C    0.57911987    0.40976000    0.28067097    -0.13200000
opls_145-88    C    0.61431002    0.38055009    0.27243011    -0.13070000
opls_700-89    C    0.64895994    0.38737983    0.45867957    0.06490000
opls_145-90    C    0.64760986    0.42443009    0.65024946    -0.12090000
opls_523-91    C    0.61244992    0.45345983    0.65727957    -0.13690000
opls_700-92    C    0.68584006    0.35547009    0.45990108    0.06660000
opls_145-93    C    0.67988998    0.30836991    0.41429032    -0.13140000
opls_145-94    C    0.71431002    0.27820000    0.42763011    -0.12830000
opls_700-95    C    0.75535008    0.29444000    0.48961935    0.05980000
opls_145-96    C    0.76146010    0.34136991    0.53270968    -0.12020000
opls_145-97    C    0.72717997    0.37162017    0.51604086    -0.13070000
opls_142-98    C    0.79195994    0.26312991    0.51461075    0.06960000
opls_700-99    C    0.92235994    0.08594017    0.48950968    -0.13690000
opls_507-100    C    0.90855008    0.03723009    0.50104086    0.17680000
opls_716-101    C    0.86244006    0.02543009    0.51453978    -0.13110000
opls_716-102    C    0.97744006    0.14568991    0.48567957    -0.17760000
opls_507-103    C    0.96533005    0.10023009    0.49107957    0.18160000
opls_700-104    C    0.88768998    0.12122017    0.48050968    0.06660000
opls_145-105    C    0.85513005    0.11840000    0.27433978    -0.12080000
opls_145-106    C    0.82222003    0.15045983    0.26881935    -0.16510000
opls_145-107    C    0.82237011    0.18750017    0.45789032    0.19560000
opls_145-108    C    0.85459014    0.19049983    0.66627097    -0.17070000
opls_145-109    C    0.88622003    0.15702017    0.68170968    -0.12940000
opls_521-110    C    0.53908013    0.52427009    0.50769032    0.12520000
opls_700-111    C    0.57782003    0.55331009    0.52638925    0.02730000
opls_523-112    C    0.57911987    0.59024000    0.71932903    -0.13200000
opls_145-113    C    0.61431002    0.61944991    0.72756989    -0.13060000
opls_700-114    C    0.64895994    0.61262017    0.54132043    0.06490000
opls_145-115    C    0.64760986    0.57556991    0.34975054    -0.12090000
opls_523-116    C    0.61244992    0.54654017    0.34272043    -0.13690000
opls_700-117    C    0.68584006    0.64452991    0.54009892    0.06660000
opls_145-118    C    0.67988998    0.69163009    0.58570968    -0.13140000
opls_145-119    C    0.71431002    0.72180000    0.57236989    -0.12830000
opls_700-120    C    0.75535008    0.70556000    0.51038065    0.05980000
opls_145-121    C    0.76146010    0.65863009    0.46729032    -0.12020000
opls_145-122    C    0.72717997    0.62837983    0.48395914    -0.13060000
opls_142-123    C    0.79195994    0.73687009    0.48538925    0.06960000
opls_700-124    C    0.92235994    0.91405983    0.51049032    -0.13690000
opls_507-125    C    0.90855008    0.96276991    0.49895914    0.17670000
opls_716-126    C    0.86244006    0.97456991    0.48546022    -0.13110000
opls_716-127    C    0.97744006    0.85431009    0.51432043    -0.17760000
opls_507-128    C    0.96533005    0.89976991    0.50892043    0.18140000
opls_700-129    C    0.88768998    0.87878017    0.51949032    0.06660000
opls_145-130    C    0.85513005    0.88160000    0.72566022    -0.12080000
opls_145-131    C    0.82222003    0.84954017    0.73118065    -0.16510000
opls_145-132    C    0.82237011    0.81249983    0.54210968    0.19550000
opls_145-133    C    0.85459014    0.80950017    0.33372903    -0.17060000
opls_145-134    C    0.88622003    0.84297983    0.31829032    -0.12940000
opls_521-135    C    0.46091987    0.47572991    0.50769032    0.12520000
opls_700-136    C    0.42217997    0.44668991    0.52638925    0.02730000
opls_523-137    C    0.42088013    0.40976000    0.71932903    -0.13200000
opls_145-138    C    0.38568998    0.38055009    0.72756989    -0.13070000
opls_700-139    C    0.35104006    0.38737983    0.54132043    0.06490000
opls_145-140    C    0.35239014    0.42443009    0.34975054    -0.12090000
opls_523-141    C    0.38755008    0.45345983    0.34272043    -0.13690000
opls_700-142    C    0.31415994    0.35547009    0.54009892    0.06660000
opls_145-143    C    0.32011002    0.30836991    0.58570968    -0.13140000
opls_145-144    C    0.28568998    0.27820000    0.57236989    -0.12830000
opls_700-145    C    0.24464992    0.29444000    0.51038065    0.05980000
opls_145-146    C    0.23853990    0.34136991    0.46729032    -0.12020000
opls_145-147    C    0.27282003    0.37162017    0.48395914    -0.13060000
opls_142-148    C    0.20804006    0.26312991    0.48538925    0.06960000
opls_700-149    C    0.07764006    0.08594017    0.51049032    -0.13680000
opls_507-150    C    0.09144992    0.03723009    0.49895914    0.17680000
opls_716-151    C    0.13755994    0.02543009    0.48546022    -0.13110000
opls_716-152    C    0.02255994    0.14568991    0.51432043    -0.17760000
opls_507-153    C    0.03466995    0.10023009    0.50892043    0.18140000
opls_700-154    C    0.11231002    0.12122017    0.51949032    0.06660000
opls_145-155    C    0.14486995    0.11840000    0.72566022    -0.12080000
opls_145-156    C    0.17777997    0.15045983    0.73118065    -0.16500000
opls_145-157    C    0.17762989    0.18750017    0.54210968    0.19550000
opls_145-158    C    0.14540986    0.19049983    0.33372903    -0.17070000
opls_145-159    C    0.11377997    0.15702017    0.31829032    -0.12940000
opls_750-160    N    0.21120000    0.77940000    0.43772043    -0.35920000
opls_750-161    N    0.78880000    0.22060000    0.43772043    -0.35930000
opls_750-162    N    0.78880000    0.77940000    0.56227957    -0.35920000
opls_750-163    N    0.21120000    0.22060000    0.56227957    -0.35930000
opls_542-164    N    0.06589984    0.00000000    0.50000000    -0.29520000
opls_542-165    N    0.93410016    0.00000000    0.50000000    -0.29530000
opls_520-166    N    0.50000000    0.45284000    0.50000000    -0.31810000
opls_520-167    N    0.50000000    0.54716000    0.50000000    -0.31800000
opls_542-168    N    0.00000000    0.92762017    0.50000000    -0.30700000
opls_542-169    N    0.00000000    0.07238017    0.50000000    -0.30710000
