#======================================================================
# Crystal Data Generated By AuToFF
#----------------------------------------------------------------------

data_AuToFF_phase_1

_cell_length_a                         30.8000
_cell_length_b                         30.8000
_cell_length_c                         9.9000
_cell_angle_alpha                      90.00
_cell_angle_beta                       90.00
_cell_angle_gamma                      120.00
_symmetry_space_group_name_H-M_alt     'P 1'
_symmetry_space_group_IT_number        1

loop_
_space_group_symop_operation_xyz
   'x, y, z'

loop_
   _atom_site_label
   _atom_site_type_symbol
   _atom_site_fract_x
   _atom_site_fract_y
   _atom_site_fract_z
   _atom_site_charge
opls_700-0    C    0.36488015    0.72312003    0.00000000    -0.14810000
opls_280-1    C    0.30896989    0.69755991    0.00000000    0.25960000
opls_142-2    C    0.37784017    0.60381021    0.00000000    0.05620000
opls_916-3    C    0.44939981    0.58383989    0.00000000    0.14280000
opls_145-4    C    0.41778991    0.53154995    0.00000000    -0.15490000
opls_145-5    C    0.43731002    0.49934017    0.00000000    -0.11430000
opls_700-6    C    0.48941984    0.51757994    0.00000000    0.06520000
opls_145-7    C    0.52089990    0.57019005    0.00000000    -0.24170000
opls_166-8    C    0.50152997    0.60288008    0.00000000    0.23510000
opls_700-9    C    0.03154993    0.05644987    0.33333030    -0.14810000
opls_280-10    C    0.97564019    0.03089012    0.33333030    0.25960000
opls_142-11    C    0.04450996    0.93714005    0.33333030    0.05620000
opls_916-12    C    0.11607011    0.91717010    0.33333030    0.14280000
opls_145-13    C    0.08446021    0.86488015    0.33333030    -0.15490000
opls_145-14    C    0.10398013    0.83267001    0.33333030    -0.11430000
opls_700-15    C    0.15609014    0.85091015    0.33333030    0.06520000
opls_145-16    C    0.18757020    0.90352026    0.33333030    -0.24170000
opls_166-17    C    0.16820009    0.93620991    0.33333030    0.23510000
opls_700-18    C    0.69821003    0.38979020    0.66666970    -0.14810000
opls_280-19    C    0.64230010    0.36423007    0.66666970    0.25960000
opls_142-20    C    0.71116987    0.27048000    0.66666970    0.05620000
opls_916-21    C    0.78273003    0.25051006    0.66666970    0.14280000
opls_145-22    C    0.75112012    0.19822011    0.66666970    -0.15490000
opls_145-23    C    0.77064005    0.16600996    0.66666970    -0.11430000
opls_700-24    C    0.82275005    0.18425011    0.66666970    0.06520000
opls_145-25    C    0.85422992    0.23685984    0.66666970    -0.24170000
opls_166-26    C    0.83486000    0.26954987    0.66666970    0.23510000
opls_700-27    C    0.27688006    0.64176012    0.00000000    -0.14810000
opls_280-28    C    0.30244019    0.61141024    0.00000000    0.25960000
opls_142-29    C    0.39618998    0.77402996    0.00000000    0.05620000
opls_916-30    C    0.41615998    0.86556023    0.00000000    0.14280000
opls_145-31    C    0.46844999    0.88624024    0.00000000    -0.15490000
opls_145-32    C    0.50066004    0.93797008    0.00000000    -0.11430000
opls_700-33    C    0.48241996    0.97183993    0.00000000    0.06520000
opls_145-34    C    0.42980988    0.95071003    0.00000000    -0.24170000
opls_166-35    C    0.39712008    0.89864990    0.00000000    0.23510000
opls_700-36    C    0.94354985    0.97508996    0.33333030    -0.14810000
opls_280-37    C    0.96910997    0.94474008    0.33333030    0.25960000
opls_142-38    C    0.06285995    0.10736017    0.33333030    0.05620000
opls_916-39    C    0.08283010    0.19889006    0.33333030    0.14280000
opls_145-40    C    0.13512010    0.21957008    0.33333030    -0.15490000
opls_145-41    C    0.16732983    0.27129992    0.33333030    -0.11430000
opls_700-42    C    0.14908994    0.30517013    0.33333030    0.06520000
opls_145-43    C    0.09648000    0.28403986    0.33333030    -0.24170000
opls_166-44    C    0.06379005    0.23198011    0.33333030    0.23510000
opls_700-45    C    0.61021009    0.30842991    0.66666970    -0.14810000
opls_280-46    C    0.63576989    0.27808003    0.66666970    0.25960000
opls_142-47    C    0.72952019    0.44070012    0.66666970    0.05620000
opls_916-48    C    0.74949001    0.53223002    0.66666970    0.14280000
opls_145-49    C    0.80178002    0.55291003    0.66666970    -0.15490000
opls_145-50    C    0.83399007    0.60463987    0.66666970    -0.11430000
opls_700-51    C    0.81575018    0.63851009    0.66666970    0.06520000
opls_145-52    C    0.76314010    0.61738019    0.66666970    -0.24170000
opls_166-53    C    0.73044997    0.56532007    0.66666970    0.23510000
opls_700-54    C    0.35823998    0.63512022    0.00000000    -0.14810000
opls_280-55    C    0.38859011    0.69103023    0.00000000    0.25960000
opls_142-56    C    0.22597004    0.62216020    0.00000000    0.05620000
opls_916-57    C    0.13443988    0.55059988    0.00000000    0.14280000
opls_145-58    C    0.11375996    0.58221019    0.00000000    -0.15490000
opls_145-59    C    0.06203013    0.56269012    0.00000000    -0.11430000
opls_700-60    C    0.02816020    0.51058013    0.00000000    0.06520000
opls_145-61    C    0.04928989    0.47909992    0.00000000    -0.24170000
opls_166-62    C    0.10134995    0.49847002    0.00000000    0.23510000
opls_700-63    C    0.02491009    0.96845005    0.33333030    -0.14810000
opls_280-64    C    0.05525990    0.02436006    0.33333030    0.25960000
opls_142-65    C    0.89264015    0.95549004    0.33333030    0.05620000
opls_916-66    C    0.80111018    0.88393009    0.33333030    0.14280000
opls_145-67    C    0.78043008    0.91554002    0.33333030    -0.15490000
opls_145-68    C    0.72869991    0.89601996    0.33333030    -0.11430000
opls_700-69    C    0.69482998    0.84390997    0.33333030    0.06520000
opls_145-70    C    0.71596019    0.81243013    0.33333030    -0.24170000
opls_166-71    C    0.76802025    0.83180023    0.33333030    0.23510000
opls_700-72    C    0.69157001    0.30179001    0.66666970    -0.14810000
opls_280-73    C    0.72192014    0.35770002    0.66666970    0.25960000
opls_142-74    C    0.55930006    0.28883000    0.66666970    0.05620000
opls_916-75    C    0.46777009    0.21727005    0.66666970    0.14280000
opls_145-76    C    0.44708999    0.24887998    0.66666970    -0.15490000
opls_145-77    C    0.39535983    0.22935991    0.66666970    -0.11430000
opls_700-78    C    0.36148990    0.17724992    0.66666970    0.06520000
opls_145-79    C    0.38262011    0.14577008    0.66666970    -0.24170000
opls_166-80    C    0.43468016    0.16514019    0.66666970    0.23510000
opls_700-81    C    0.63511985    0.27687997    0.00000000    -0.14810000
opls_280-82    C    0.69103011    0.30244009    0.00000000    0.25960000
opls_142-83    C    0.62216002    0.39619016    0.00000000    0.05620000
opls_916-84    C    0.55060019    0.41616011    0.00000000    0.14280000
opls_145-85    C    0.58221009    0.46845005    0.00000000    -0.15490000
opls_145-86    C    0.56269017    0.50066020    0.00000000    -0.11430000
opls_700-87    C    0.51058016    0.48242006    0.00000000    0.06520000
opls_145-88    C    0.47910010    0.42980995    0.00000000    -0.24170000
opls_166-89    C    0.49847003    0.39711992    0.00000000    0.23510000
opls_700-90    C    0.30179015    0.61021018    0.33333030    -0.14810000
opls_280-91    C    0.35769990    0.63576993    0.33333030    0.25960000
opls_142-92    C    0.28883013    0.72952000    0.33333030    0.05620000
opls_916-93    C    0.21726997    0.74948994    0.33333030    0.14280000
opls_145-94    C    0.24887988    0.80177989    0.33333030    -0.15490000
opls_145-95    C    0.22935995    0.83399004    0.33333030    -0.11430000
opls_700-96    C    0.17724995    0.81574989    0.33333030    0.06520000
opls_145-97    C    0.14577008    0.76314016    0.33333030    -0.24170000
opls_166-98    C    0.16514000    0.73045013    0.33333030    0.23510000
opls_700-99    C    0.96845007    0.94355013    0.66666970    -0.14810000
opls_280-100    C    0.02436000    0.96911026    0.66666970    0.25960000
opls_142-101    C    0.95549004    0.06285995    0.66666970    0.05620000
opls_916-102    C    0.88392989    0.08282990    0.66666970    0.14280000
opls_145-103    C    0.91553979    0.13511985    0.66666970    -0.15490000
opls_145-104    C    0.89601987    0.16732999    0.66666970    -0.11430000
opls_700-105    C    0.84390986    0.14908985    0.66666970    0.06520000
opls_145-106    C    0.81242999    0.09648011    0.66666970    -0.24170000
opls_166-107    C    0.83179991    0.06379009    0.66666970    0.23510000
opls_700-108    C    0.72311994    0.35823988    0.00000000    -0.14810000
opls_280-109    C    0.69756000    0.38859013    0.00000000    0.25960000
opls_142-110    C    0.60381002    0.22597004    0.00000000    0.05620000
opls_916-111    C    0.58384020    0.13444015    0.00000000    0.14280000
opls_145-112    C    0.53155020    0.11376013    0.00000000    -0.15490000
opls_145-113    C    0.49933996    0.06202992    0.00000000    -0.11430000
opls_700-114    C    0.51758004    0.02816007    0.00000000    0.06520000
opls_145-115    C    0.57019012    0.04928997    0.00000000    -0.24170000
opls_166-116    C    0.60287992    0.10135010    0.00000000    0.23510000
opls_700-117    C    0.38978991    0.69157009    0.33333030    -0.14810000
opls_280-118    C    0.36423011    0.72191997    0.33333030    0.25960000
opls_142-119    C    0.27047981    0.55929988    0.33333030    0.05620000
opls_916-120    C    0.25050999    0.46776998    0.33333030    0.14280000
opls_145-121    C    0.19821998    0.44708997    0.33333030    -0.15490000
opls_145-122    C    0.16600993    0.39536013    0.33333030    -0.11430000
opls_700-123    C    0.18424982    0.36148991    0.33333030    0.06520000
opls_145-124    C    0.23686009    0.38262018    0.33333030    -0.24170000
opls_166-125    C    0.26955003    0.43467993    0.33333030    0.23510000
opls_700-126    C    0.05645015    0.02491004    0.66666970    -0.14810000
opls_280-127    C    0.03089003    0.05525992    0.66666970    0.25960000
opls_142-128    C    0.93714023    0.89264021    0.66666970    0.05620000
opls_916-129    C    0.91716990    0.80110994    0.66666970    0.14280000
opls_145-130    C    0.86487990    0.78042992    0.66666970    -0.15490000
opls_145-131    C    0.83267017    0.72870008    0.66666970    -0.11430000
opls_700-132    C    0.85091025    0.69483024    0.66666970    0.06520000
opls_145-133    C    0.90352000    0.71596014    0.66666970    -0.24170000
opls_166-134    C    0.93620995    0.76801989    0.66666970    0.23510000
opls_700-135    C    0.64176021    0.36488015    0.00000000    -0.14810000
opls_280-136    C    0.61141007    0.30897015    0.00000000    0.25960000
opls_142-137    C    0.77403015    0.37784017    0.00000000    0.05620000
opls_916-138    C    0.86556012    0.44940012    0.00000000    0.14280000
opls_145-139    C    0.88624022    0.41779019    0.00000000    -0.15490000
opls_145-140    C    0.93796987    0.43730988    0.00000000    -0.11430000
opls_700-141    C    0.97183980    0.48941987    0.00000000    0.06520000
opls_145-142    C    0.95071011    0.52090008    0.00000000    -0.24170000
opls_166-143    C    0.89865005    0.50152998    0.00000000    0.23510000
opls_700-144    C    0.30842999    0.69820999    0.33333030    -0.14810000
opls_280-145    C    0.27807986    0.64229998    0.33333030    0.25960000
opls_142-146    C    0.44069994    0.71117000    0.33333030    0.05620000
opls_916-147    C    0.53222991    0.78272995    0.33333030    0.14280000
opls_145-148    C    0.55291001    0.75112002    0.33333030    -0.15490000
opls_145-149    C    0.60464017    0.77064009    0.33333030    -0.11430000
opls_700-150    C    0.63851010    0.82275008    0.33333030    0.06520000
opls_145-151    C    0.61737989    0.85422992    0.33333030    -0.24170000
opls_166-152    C    0.56532003    0.83486019    0.33333030    0.23510000
opls_700-153    C    0.97508991    0.03154995    0.66666970    -0.14810000
opls_280-154    C    0.94474010    0.97563994    0.66666970    0.25960000
opls_142-155    C    0.10735985    0.04450996    0.66666970    0.05620000
opls_916-156    C    0.19888982    0.11606991    0.66666970    0.14280000
opls_145-157    C    0.21956992    0.08445998    0.66666970    -0.15490000
opls_145-158    C    0.27130009    0.10398004    0.66666970    -0.11430000
opls_700-159    C    0.30517002    0.15609003    0.66666970    0.06520000
opls_145-160    C    0.28403981    0.18756987    0.66666970    -0.24170000
opls_166-161    C    0.23197994    0.16820014    0.66666970    0.23510000
opls_281-162    O    0.43407999    0.71173011    0.00000000    -0.34150000
opls_167-163    O    0.53411007    0.65472014    0.00000000    -0.43790000
opls_281-164    O    0.10075010    0.04505994    0.33333030    -0.34150000
opls_167-165    O    0.20077986    0.98804997    0.33333030    -0.43790000
opls_281-166    O    0.76741001    0.37839990    0.66666970    -0.34150000
opls_167-167    O    0.86744009    0.32138993    0.66666970    -0.43790000
opls_281-168    O    0.28827012    0.72234998    0.00000000    -0.34150000
opls_167-169    O    0.34528007    0.87939002    0.00000000    -0.43790000
opls_281-170    O    0.95494009    0.05568019    0.33333030    -0.34150000
opls_167-171    O    0.01194986    0.21271985    0.33333030    -0.43790000
opls_281-172    O    0.62160001    0.38902015    0.66666970    -0.34150000
opls_167-173    O    0.67860996    0.54606018    0.66666970    -0.43790000
opls_281-174    O    0.27764989    0.56591991    0.00000000    -0.34150000
opls_167-175    O    0.12061004    0.46589022    0.00000000    -0.43790000
opls_281-176    O    0.94432019    0.89925012    0.33333030    -0.34150000
opls_167-177    O    0.78728016    0.79922005    0.33333030    -0.43790000
opls_281-178    O    0.61098010    0.23259008    0.66666970    -0.34150000
opls_167-179    O    0.45394007    0.13256001    0.66666970    -0.43790000
opls_281-180    O    0.56592001    0.28826989    0.00000000    -0.34150000
opls_167-181    O    0.46588993    0.34527986    0.00000000    -0.43790000
opls_281-182    O    0.23258999    0.62160010    0.33333030    -0.34150000
opls_167-183    O    0.13255991    0.67861007    0.33333030    -0.43790000
opls_281-184    O    0.89924990    0.95494006    0.66666970    -0.34150000
opls_167-185    O    0.79922014    0.01195003    0.66666970    -0.43790000
opls_281-186    O    0.71172988    0.27765002    0.00000000    -0.34150000
opls_167-187    O    0.65471993    0.12060998    0.00000000    -0.43790000
opls_281-188    O    0.37840018    0.61098023    0.33333030    -0.34150000
opls_167-189    O    0.32139023    0.45394019    0.33333030    -0.43790000
opls_281-190    O    0.04506009    0.94432018    0.66666970    -0.34150000
opls_167-191    O    0.98805014    0.78728015    0.66666970    -0.43790000
opls_281-192    O    0.72235011    0.43408009    0.00000000    -0.34150000
opls_167-193    O    0.87939014    0.53411016    0.00000000    -0.43790000
opls_281-194    O    0.38901990    0.76740992    0.33333030    -0.34150000
opls_167-195    O    0.54605993    0.86743999    0.33333030    -0.43790000
opls_281-196    O    0.05567981    0.10074988    0.66666970    -0.34150000
opls_167-197    O    0.21271984    0.20077995    0.66666970    -0.43790000
opls_238-198    N    0.43033010    0.61836994    0.00000000    -0.32970000
opls_238-199    N    0.09700007    0.95170015    0.33333030    -0.32970000
opls_238-200    N    0.76365999    0.28504010    0.66666970    -0.32970000
opls_238-201    N    0.38163000    0.81196000    0.00000000    -0.32970000
opls_238-202    N    0.04829979    0.14528983    0.33333030    -0.32970000
opls_238-203    N    0.71496021    0.47863017    0.66666970    -0.32970000
opls_238-204    N    0.18803990    0.56967006    0.00000000    -0.32970000
opls_238-205    N    0.85471001    0.90299990    0.33333030    -0.32970000
opls_238-206    N    0.52136993    0.23633985    0.66666970    -0.32970000
opls_238-207    N    0.56966990    0.38163006    0.00000000    -0.32970000
opls_238-208    N    0.23634001    0.71495990    0.33333030    -0.32970000
opls_238-209    N    0.90299993    0.04829985    0.66666970    -0.32970000
opls_238-210    N    0.61837000    0.18804000    0.00000000    -0.32970000
opls_238-211    N    0.28503998    0.52137021    0.33333030    -0.32970000
opls_238-212    N    0.95170021    0.85471017    0.66666970    -0.32970000
opls_238-213    N    0.81196010    0.43032994    0.00000000    -0.32970000
opls_238-214    N    0.47863007    0.76366015    0.33333030    -0.32970000
opls_238-215    N    0.14528999    0.09700010    0.66666970    -0.32970000
opls_168-216    H    0.57089004    0.66505996    0.00000000    0.30980000
opls_910-217    H    0.80188012    0.45764011    0.00000000    0.27690000
opls_146-218    H    0.41263011    0.97361996    0.00000000    0.11180000
opls_146-219    H    0.53995010    0.95005020    0.00000000    0.10100000
opls_146-220    H    0.48587001    0.86349002    0.00000000    0.09990000
opls_144-221    H    0.43565009    0.78718005    0.00000000    0.10980000
opls_168-222    H    0.23756002    0.99839017    0.33333030    0.30980000
opls_910-223    H    0.46854991    0.79096994    0.33333030    0.27690000
opls_146-224    H    0.07930009    0.30695017    0.33333030    0.11180000
opls_146-225    H    0.20661989    0.28338003    0.33333030    0.10100000
opls_146-226    H    0.15253979    0.19681985    0.33333030    0.09990000
opls_144-227    H    0.10231988    0.12050988    0.33333030    0.10980000
opls_168-228    H    0.90421993    0.33173012    0.66666970    0.30980000
opls_910-229    H    0.13520982    0.12430990    0.66666970    0.27690000
opls_146-230    H    0.74596000    0.64029013    0.66666970    0.11180000
opls_146-231    H    0.87328013    0.61671999    0.66666970    0.10100000
opls_146-232    H    0.81920022    0.53016018    0.66666970    0.09990000
opls_144-233    H    0.76897998    0.45385021    0.66666970    0.10980000
opls_168-234    H    0.33494002    0.90583004    0.00000000    0.30980000
opls_910-235    H    0.54235988    0.34423988    0.00000000    0.27690000
opls_146-236    H    0.02638003    0.43901006    0.00000000    0.11180000
opls_146-237    H    0.04995010    0.58990019    0.00000000    0.10100000
opls_146-238    H    0.13651008    0.62237990    0.00000000    0.09990000
opls_144-239    H    0.21282013    0.64847013    0.00000000    0.10980000
opls_168-240    H    0.00160981    0.23915987    0.33333030    0.30980000
opls_910-241    H    0.20903017    0.67757009    0.33333030    0.27690000
opls_146-242    H    0.69304982    0.77233990    0.33333030    0.11180000
opls_146-243    H    0.71661988    0.92323003    0.33333030    0.10100000
opls_146-244    H    0.80318005    0.95571011    0.33333030    0.09990000
opls_144-245    H    0.87948992    0.98179997    0.33333030    0.10980000
opls_168-246    H    0.66827023    0.57250020    0.66666970    0.30980000
opls_910-247    H    0.87569009    0.01091005    0.66666970    0.27690000
opls_146-248    H    0.35971006    0.10567985    0.66666970    0.11180000
opls_146-249    H    0.38328012    0.25656998    0.66666970    0.10100000
opls_146-250    H    0.46983997    0.28905006    0.66666970    0.09990000
opls_144-251    H    0.54614983    0.31513992    0.66666970    0.10980000
opls_168-252    H    0.09416994    0.42911000    0.00000000    0.30980000
opls_910-253    H    0.65576001    0.19812001    0.00000000    0.27690000
opls_146-254    H    0.56098986    0.58736997    0.00000000    0.11180000
opls_146-255    H    0.41009999    0.46004998    0.00000000    0.10100000
opls_146-256    H    0.37761991    0.51413009    0.00000000    0.09990000
opls_144-257    H    0.35152997    0.56435019    0.00000000    0.10980000
opls_168-258    H    0.76084024    0.76244021    0.33333030    0.30980000
opls_910-259    H    0.32242998    0.53145022    0.33333030    0.27690000
opls_146-260    H    0.22766016    0.92070018    0.33333030    0.11180000
opls_146-261    H    0.07676997    0.79338019    0.33333030    0.10100000
opls_146-262    H    0.04429003    0.84745992    0.33333030    0.09990000
opls_144-263    H    0.01820008    0.89768003    0.33333030    0.10980000
opls_168-264    H    0.42750015    0.09578017    0.66666970    0.30980000
opls_910-265    H    0.98909022    0.86479018    0.66666970    0.27690000
opls_146-266    H    0.89432007    0.25404014    0.66666970    0.11180000
opls_146-267    H    0.74343020    0.12672015    0.66666970    0.10100000
opls_146-268    H    0.71094994    0.18079988    0.66666970    0.09990000
opls_144-269    H    0.68485999    0.23101998    0.66666970    0.10980000
opls_168-270    H    0.42910996    0.33494004    0.00000000    0.30980000
opls_910-271    H    0.19811988    0.54235989    0.00000000    0.27690000
opls_146-272    H    0.58736989    0.02638004    0.00000000    0.11180000
opls_146-273    H    0.46005009    0.04995018    0.00000000    0.10100000
opls_146-274    H    0.51412999    0.13650998    0.00000000    0.09990000
opls_144-275    H    0.56434991    0.21281995    0.00000000    0.10980000
opls_168-276    H    0.09578007    0.66826988    0.33333030    0.30980000
opls_910-277    H    0.86479018    0.87569010    0.33333030    0.27690000
opls_146-278    H    0.25404000    0.35970987    0.33333030    0.11180000
opls_146-279    H    0.12671987    0.38328001    0.33333030    0.10100000
opls_146-280    H    0.18079997    0.46984019    0.33333030    0.09990000
opls_144-281    H    0.23102021    0.54615016    0.33333030    0.10980000
opls_168-282    H    0.76243998    0.00160983    0.66666970    0.30980000
opls_910-283    H    0.53145009    0.20903006    0.66666970    0.27690000
opls_146-284    H    0.92070010    0.69305020    0.66666970    0.11180000
opls_146-285    H    0.79338011    0.71661997    0.66666970    0.10100000
opls_146-286    H    0.84746021    0.80318015    0.66666970    0.09990000
opls_144-287    H    0.89768012    0.87949012    0.66666970    0.10980000
opls_168-288    H    0.66505998    0.09416996    0.00000000    0.30980000
opls_910-289    H    0.45764012    0.65576012    0.00000000    0.27690000
opls_146-290    H    0.97361997    0.56098994    0.00000000    0.11180000
opls_146-291    H    0.95005009    0.41010018    0.00000000    0.10100000
opls_146-292    H    0.86348992    0.37762010    0.00000000    0.09990000
opls_144-293    H    0.78717987    0.35152987    0.00000000    0.10980000
opls_168-294    H    0.33172996    0.42750017    0.33333030    0.30980000
opls_910-295    H    0.12430991    0.98908995    0.33333030    0.27690000
opls_146-296    H    0.64028994    0.89432015    0.33333030    0.11180000
opls_146-297    H    0.61671988    0.74343002    0.33333030    0.10100000
opls_146-298    H    0.53016003    0.71094994    0.33333030    0.09990000
opls_144-299    H    0.45385017    0.68486008    0.33333030    0.10980000
opls_168-300    H    0.99839019    0.76084013    0.66666970    0.30980000
opls_910-301    H    0.79096983    0.32242991    0.66666970    0.27690000
opls_146-302    H    0.30695018    0.22766010    0.66666970    0.11180000
opls_146-303    H    0.28338012    0.07676997    0.66666970    0.10100000
opls_146-304    H    0.19681995    0.04428989    0.66666970    0.09990000
opls_144-305    H    0.12051008    0.01820003    0.66666970    0.10980000
opls_168-306    H    0.90583006    0.57089000    0.00000000    0.30980000
opls_910-307    H    0.34423999    0.80187999    0.00000000    0.27690000
opls_146-308    H    0.43901014    0.41263003    0.00000000    0.11180000
opls_146-309    H    0.58990001    0.53995002    0.00000000    0.10100000
opls_146-310    H    0.62238009    0.48586991    0.00000000    0.09990000
opls_144-311    H    0.64847022    0.43565018    0.00000000    0.10980000
opls_168-312    H    0.57250004    0.90422021    0.33333030    0.30980000
opls_910-313    H    0.01090997    0.13521020    0.33333030    0.27690000
opls_146-314    H    0.10568012    0.74596023    0.33333030    0.11180000
opls_146-315    H    0.25656998    0.87328023    0.33333030    0.10100000
opls_146-316    H    0.28905006    0.81920012    0.33333030    0.09990000
opls_144-317    H    0.31514001    0.76898002    0.33333030    0.10980000
opls_168-318    H    0.23915995    0.23756016    0.66666970    0.30980000
opls_910-319    H    0.67757021    0.46855015    0.66666970    0.27690000
opls_146-320    H    0.77234003    0.07930019    0.66666970    0.11180000
opls_146-321    H    0.92323022    0.20662018    0.66666970    0.10100000
opls_146-322    H    0.95570997    0.15254008    0.66666970    0.09990000
opls_144-323    H    0.98179992    0.10231997    0.66666970    0.10980000
