#======================================================================
# Crystal Data Generated By AuToFF
#----------------------------------------------------------------------

data_AuToFF_phase_1

_cell_length_a                         25.4000
_cell_length_b                         25.4000
_cell_length_c                         7.9600
_cell_angle_alpha                      90.00
_cell_angle_beta                       90.00
_cell_angle_gamma                      90.00
_symmetry_space_group_name_H-M_alt     'P 1'
_symmetry_space_group_IT_number        1

loop_
_space_group_symop_operation_xyz
   'x, y, z'

loop_
   _atom_site_label
   _atom_site_type_symbol
   _atom_site_fract_x
   _atom_site_fract_y
   _atom_site_fract_z
   _atom_site_charge
Cu2+-0    Cu    0.32302008    0.69347008    0.51966960    0.70420000
Cu2+-1    Cu    0.27217008    0.72222992    0.94357035    0.70420000
opls_750-2    N    0.30445000    0.04907008    0.34421985    -0.30800000
opls_750-3    N    0.35860000    0.33794016    0.53052010    -0.30820000
opls_542-4    N    0.37727992    0.64957992    0.63194975    -0.36210000
opls_542-5    N    0.27150984    0.63409016    0.53372990    -0.34460000
opls_542-6    N    0.37249016    0.75464016    0.51430025    -0.34230000
opls_542-7    N    0.26980984    0.73620000    0.39862060    -0.34430000
opls_750-8    N    0.68070000    0.72019016    0.56350000    -0.31710000
opls_750-9    N    0.96639016    0.66767008    0.38012060    -0.31710000
opls_750-10    N    0.23780000    0.07785000    0.92480025    -0.31020000
opls_750-11    N    0.29245000    0.36649016    0.11143970    -0.30700000
opls_542-12    N    0.32540984    0.67952008    0.06455025    -0.36060000
opls_542-13    N    0.22270984    0.66107008    0.94914950    -0.36390000
opls_542-14    N    0.32370000    0.78157008    0.92912940    -0.34270000
opls_542-15    N    0.21782008    0.76607992    0.83159045    -0.35880000
opls_750-16    N    0.62855984    0.74940000    0.09078015    -0.31710000
opls_750-17    N    0.91435984    0.69672992    0.90887940    -0.31710000
opls_700-18    C    0.30940984    0.88070000    0.32839950    0.06660000
opls_145-19    C    0.34999016    0.91024016    0.25228015    -0.11440000
opls_145-20    C    0.26352992    0.90810000    0.37618970    -0.12130000
opls_145-21    C    0.34860984    0.96567992    0.25038945    -0.17420000
opls_145-22    C    0.26110000    0.96337992    0.36642965    -0.16750000
opls_145-23    C    0.30500984    0.99277992    0.31631030    0.20330000
opls_142-24    C    0.34490000    0.08067008    0.35645980    0.09960000
opls_700-25    C    0.33854016    0.13772992    0.40028015    -0.19650000
opls_727-26    C    0.28947008    0.16307992    0.39485050    0.13540000
opls_727-27    C    0.38289016    0.16732992    0.44882035    0.14880000
opls_727-28    C    0.28494016    0.21692992    0.43868970    0.13530000
opls_727-29    C    0.37840000    0.22170000    0.49075000    0.13900000
opls_700-30    C    0.32894016    0.24660984    0.48678015    -0.20020000
opls_142-31    C    0.32074016    0.30322008    0.53177010    0.08680000
opls_145-32    C    0.35224016    0.39335000    0.56805025    0.20330000
opls_145-33    C    0.31415000    0.41202008    0.68152010    -0.17420000
opls_145-34    C    0.38572008    0.42999016    0.49181030    -0.16600000
opls_145-35    C    0.30867992    0.46630984    0.71254020    -0.11940000
opls_145-36    C    0.37942008    0.48440984    0.51975000    -0.12440000
opls_700-37    C    0.34007008    0.50380000    0.62892965    0.06580000
opls_700-38    C    0.33054016    0.56284016    0.64465955    -0.12860000
opls_543-39    C    0.37360000    0.59597992    0.67166960    0.19500000
opls_543-40    C    0.28090984    0.58329016    0.59291960    0.19500000
opls_716-41    C    0.42309016    0.57777992    0.73910050    -0.16540000
opls_716-42    C    0.23340000    0.55354016    0.59142965    -0.16000000
opls_543-43    C    0.42995984    0.66320984    0.66070980    0.19500000
opls_716-44    C    0.45760000    0.61882008    0.73186055    -0.16610000
opls_543-45    C    0.21807008    0.63505984    0.49038945    0.19500000
opls_716-46    C    0.19395984    0.58637008    0.53432035    -0.15580000
opls_700-47    C    0.45447008    0.71094016    0.62210050    -0.07970000
opls_700-48    C    0.19255984    0.67492992    0.39594975    -0.07760000
opls_543-49    C    0.42494016    0.75520984    0.56617965    0.19500000
opls_543-50    C    0.36142992    0.80625984    0.46361055    0.19990000
opls_543-51    C    0.27604016    0.78704016    0.33484045    0.19630000
opls_543-52    C    0.22024016    0.71967992    0.34379020    0.19610000
opls_700-53    C    0.51350984    0.71257992    0.61290955    0.07230000
opls_716-54    C    0.44577992    0.80710984    0.55288945    -0.15520000
opls_716-55    C    0.40570984    0.83919016    0.49586055    -0.15690000
opls_700-56    C    0.31607008    0.82285984    0.37384045    -0.10220000
opls_716-57    C    0.23285984    0.79957992    0.22511055    -0.16100000
opls_716-58    C    0.19857992    0.75797008    0.22991960    -0.16620000
opls_145-59    C    0.54332008    0.74962008    0.70303015    -0.12190000
opls_145-60    C    0.54027008    0.67700000    0.50737060    -0.12260000
opls_145-61    C    0.59815000    0.75225000    0.68330025    -0.15770000
opls_145-62    C    0.59525000    0.67809016    0.49401005    -0.15780000
opls_145-63    C    0.62460000    0.71592992    0.58202010    0.20370000
opls_142-64    C    0.71252008    0.68102992    0.53581030    0.07520000
opls_700-65    C    0.76940984    0.68987992    0.50911055    -0.13180000
opls_727-66    C    0.80504016    0.65079016    0.55829020    0.13550000
opls_727-67    C    0.78802008    0.73435000    0.42321985    0.13540000
opls_727-68    C    0.85922992    0.65530984    0.51957035    0.13540000
opls_727-69    C    0.84219016    0.73930984    0.38676005    0.13540000
opls_700-70    C    0.87765984    0.69972008    0.43255025    -0.11640000
opls_142-71    C    0.93372008    0.70700984    0.38944975    0.07480000
opls_145-72    C    0.02224016    0.67264016    0.35604020    0.20370000
opls_145-73    C    0.04930000    0.71805000    0.40669975    -0.14540000
opls_145-74    C    0.05132008    0.62907992    0.30087060    -0.16150000
opls_145-75    C    0.10400984    0.71825984    0.41331030    -0.12490000
opls_145-76    C    0.10672992    0.63000984    0.30355025    -0.11970000
opls_700-77    C    0.13377008    0.67380984    0.36915955    0.07300000
opls_700-78    C    0.25555000    0.91175984    0.83004020    0.06630000
opls_145-79    C    0.28695984    0.94889016    0.74490955    -0.11940000
opls_145-80    C    0.21647992    0.93157008    0.93946985    -0.13760000
opls_145-81    C    0.28174016    0.00327992    0.77463945    -0.17350000
opls_145-82    C    0.21039016    0.98605000    0.96598995    -0.16460000
opls_145-83    C    0.24387992    0.02237008    0.88823995    0.20330000
opls_142-84    C    0.27575000    0.11245000    0.92244975    0.09220000
opls_700-85    C    0.26772992    0.16907992    0.96721985    -0.20230000
opls_727-86    C    0.21832008    0.19407008    0.96332035    0.13900000
opls_727-87    C    0.31180000    0.19865000    0.01535050    0.13530000
opls_727-88    C    0.21392992    0.24842992    0.00546985    0.14880000
opls_727-89    C    0.30737008    0.25247992    0.05945980    0.13540000
opls_700-90    C    0.25832992    0.27790000    0.05423995    -0.19860000
opls_142-91    C    0.25200984    0.33490000    0.09876005    0.09830000
opls_145-92    C    0.29169016    0.42272008    0.14029020    0.20330000
opls_145-93    C    0.24810984    0.44942992    0.20792965    -0.17230000
opls_145-94    C    0.33530984    0.45247992    0.08964950    -0.16920000
opls_145-95    C    0.24637008    0.50484016    0.20698995    -0.12230000
opls_145-96    C    0.33247992    0.50777008    0.08078015    -0.12680000
opls_700-97    C    0.28650000    0.53472992    0.12988945    0.06680000
opls_700-98    C    0.27934016    0.59270984    0.08787060    -0.05690000
opls_543-99    C    0.31929016    0.62855984    0.12748995    0.19630000
opls_543-100    C    0.23390984    0.60935984    0.99867965    0.19990000
opls_716-101    C    0.36237008    0.61600984    0.23752010    -0.15780000
opls_716-102    C    0.18960000    0.57644016    0.96658040    -0.15690000
opls_543-103    C    0.37482992    0.69615000    0.12035050    0.19620000
opls_716-104    C    0.39642992    0.65780000    0.23421985    -0.16460000
opls_543-105    C    0.17017008    0.66054016    0.89833040    0.19500000
opls_716-106    C    0.14940984    0.60859016    0.91090955    -0.15780000
opls_700-107    C    0.40250000    0.74095984    0.06858040    -0.07750000
opls_700-108    C    0.14050984    0.70492992    0.84397990    -0.08050000
opls_543-109    C    0.37707008    0.78070984    0.97329020    0.19500000
opls_543-110    C    0.31435984    0.83225000    0.86877010    0.19500000
opls_543-111    C    0.22160984    0.81957992    0.79048995    0.19500000
opls_543-112    C    0.16500000    0.75260984    0.80478015    0.19510000
opls_700-113    C    0.46115984    0.74245000    0.09829020    0.07270000
opls_716-114    C    0.40122008    0.82930984    0.92867965    -0.15580000
opls_716-115    C    0.36185000    0.86200984    0.87033040    -0.15270000
opls_700-116    C    0.26477992    0.85265000    0.81634045    -0.12900000
opls_716-117    C    0.17200000    0.83782008    0.72406030    -0.16530000
opls_716-118    C    0.13730000    0.79699016    0.73382035    -0.16610000
opls_145-119    C    0.48784016    0.78652992    0.16347990    -0.11970000
opls_145-120    C    0.49127992    0.69817992    0.05462940    -0.12280000
opls_145-121    C    0.54325000    0.78770984    0.16761055    -0.16940000
opls_145-122    C    0.54595000    0.69864016    0.06277010    -0.15350000
opls_145-123    C    0.57267992    0.74420000    0.11381030    0.20360000
opls_142-124    C    0.66137992    0.71017008    0.08253015    0.07510000
opls_700-125    C    0.71747992    0.71752008    0.03993970    -0.13150000
opls_727-126    C    0.75295000    0.67799016    0.08631030    0.13540000
opls_727-127    C    0.73592008    0.76182008    0.95237060    0.13660000
opls_727-128    C    0.80712992    0.68290984    0.04993970    0.13540000
opls_727-129    C    0.79014016    0.76634016    0.91395980    0.13530000
opls_700-130    C    0.82577008    0.72730000    0.96373995    -0.11230000
opls_142-131    C    0.88269016    0.73600000    0.93669975    0.07490000
opls_145-132    C    0.97044016    0.70072992    0.88932035    0.20410000
opls_145-133    C    0.00017008    0.73850984    0.97633040    -0.15790000
opls_145-134    C    0.99650984    0.66422008    0.78771985    -0.15630000
opls_145-135    C    0.05514016    0.73934016    0.96164950    -0.12280000
opls_145-136    C    0.05127992    0.66662008    0.76651005    -0.12240000
opls_700-137    C    0.08149016    0.70354016    0.85578015    0.07260000
opls_719-138    F    0.16720984    0.27440984    0.99059045    -0.13420000
opls_719-139    F    0.23790000    0.24217008    0.42581030    -0.13790000
opls_719-140    F    0.17565984    0.16660000    0.90850000    -0.10300000
opls_719-141    F    0.24657992    0.13647008    0.33823995    -0.12330000
opls_719-142    F    0.35030000    0.27895984    0.11635050    -0.12360000
opls_719-143    F    0.42100984    0.24925984    0.54556030    -0.10300000
opls_719-144    F    0.42964016    0.14140984    0.46386055    -0.13420000
opls_719-145    F    0.35877008    0.17327008    0.02822990    -0.13030000
opls_719-146    F    0.73445000    0.63712008    0.18062940    -0.11460000
opls_719-147    F    0.78632008    0.61010000    0.65234045    -0.12840000
opls_719-148    F    0.89430000    0.61872008    0.57582035    -0.13420000
opls_719-149    F    0.84212008    0.64830000    0.11728015    -0.11080000
opls_719-150    F    0.70080984    0.79822008    0.89505025    -0.12750000
opls_719-151    F    0.75299016    0.76894016    0.35595980    -0.11040000
opls_719-152    F    0.80890984    0.80689016    0.81937060    -0.13690000
opls_719-153    F    0.86065984    0.78022008    0.29254020    -0.14610000
opls_146-154    H    0.38470000    0.89060000    0.20503015    0.12960000
opls_146-155    H    0.23095984    0.88717008    0.43304020    0.12580000
opls_146-156    H    0.38194016    0.98714016    0.20077010    0.13070000
opls_146-157    H    0.22675984    0.98402008    0.41329020    0.12330000
opls_144-158    H    0.38460000    0.06517992    0.34702010    0.11740000
opls_144-159    H    0.28062008    0.31612008    0.55419975    0.11330000
opls_146-160    H    0.28937008    0.38460000    0.74911055    0.12870000
opls_146-161    H    0.41590984    0.41587992    0.40683040    0.12290000
opls_146-162    H    0.27975000    0.47884016    0.80366960    0.12400000
opls_146-163    H    0.40522992    0.51132008    0.45421985    0.12960000
opls_547-164    H    0.43249016    0.53862992    0.78397990    0.12060000
opls_547-165    H    0.22585984    0.51345984    0.62717965    0.10350000
opls_547-166    H    0.49862008    0.61672008    0.76847990    0.12350000
opls_547-167    H    0.15302008    0.57517992    0.52833040    0.12850000
opls_547-168    H    0.48447992    0.82157992    0.58356030    0.10850000
opls_547-169    H    0.40924016    0.88142008    0.48622990    0.12850000
opls_547-170    H    0.22664016    0.83552992    0.15552010    0.13020000
opls_547-171    H    0.16140984    0.75649016    0.16385050    0.12650000
opls_146-172    H    0.52429016    0.77649016    0.78932035    0.12850000
opls_146-173    H    0.51850984    0.64834016    0.43450000    0.12580000
opls_146-174    H    0.62067008    0.78212992    0.74872990    0.12220000
opls_146-175    H    0.61472008    0.65067992    0.41056030    0.12820000
opls_144-176    H    0.69822992    0.64070000    0.53685050    0.11270000
opls_146-177    H    0.02859016    0.75220984    0.45328015    0.12500000
opls_146-178    H    0.03054016    0.59407992    0.26005025    0.12220000
opls_146-179    H    0.12342992    0.75344016    0.45512060    0.10350000
opls_146-180    H    0.12820984    0.59597008    0.25933040    0.12840000
opls_144-181    H    0.94684016    0.74669016    0.36238945    0.13260000
opls_146-182    H    0.31582008    0.93597008    0.65411055    0.12400000
opls_146-183    H    0.19077992    0.90490000    0.00642965    0.12840000
opls_146-184    H    0.30655000    0.03045984    0.70616960    0.12870000
opls_146-185    H    0.18040984    0.00050000    0.05116960    0.12220000
opls_144-186    H    0.31580984    0.09940984    0.89964950    0.11350000
opls_144-187    H    0.21232008    0.35037992    0.10839950    0.11030000
opls_146-188    H    0.21510000    0.42767992    0.25839950    0.12980000
opls_146-189    H    0.36967992    0.43212992    0.04180025    0.12220000
opls_146-190    H    0.21175984    0.52422992    0.25621985    0.12960000
opls_146-191    H    0.36484016    0.52909016    0.02427010    0.12850000
opls_547-192    H    0.36862992    0.57992008    0.30633040    0.13020000
opls_547-193    H    0.18610000    0.53420000    0.97596985    0.12830000
opls_547-194    H    0.43350000    0.65930000    0.30102010    0.12870000
opls_547-195    H    0.11065984    0.59414016    0.88087940    0.10890000
opls_547-196    H    0.44215984    0.84050000    0.93496985    0.12830000
opls_547-197    H    0.36944016    0.90202008    0.83380025    0.10340000
opls_547-198    H    0.16267008    0.87685984    0.67812060    0.12090000
opls_547-199    H    0.09617992    0.79917008    0.69833040    0.12200000
opls_146-200    H    0.46610984    0.82060984    0.20591960    0.12680000
opls_146-201    H    0.47217992    0.66297008    0.01125000    0.10350000
opls_146-202    H    0.56375984    0.82287992    0.20821985    0.12290000
opls_146-203    H    0.56692992    0.66459016    0.01657035    0.12640000
opls_144-204    H    0.64835000    0.67047992    0.10987940    0.13260000
opls_146-205    H    0.98100000    0.76609016    0.05990955    0.12820000
opls_146-206    H    0.97372992    0.63439016    0.72306030    0.12200000
opls_146-207    H    0.07717008    0.76802992    0.03350000    0.12850000
opls_146-208    H    0.06992992    0.63974016    0.67943970    0.12540000
opls_144-209    H    0.89707992    0.77630000    0.93513945    0.11380000
