#======================================================================
# Crystal Data Generated By AuToFF
#----------------------------------------------------------------------

data_AuToFF_phase_1

_cell_length_a                         28.1900
_cell_length_b                         28.9200
_cell_length_c                         4.3100
_cell_angle_alpha                      78.35
_cell_angle_beta                       92.98
_cell_angle_gamma                      96.55
_symmetry_space_group_name_H-M_alt     'P 1'
_symmetry_space_group_IT_number        1

loop_
_space_group_symop_operation_xyz
   'x, y, z'

loop_
   _atom_site_label
   _atom_site_type_symbol
   _atom_site_fract_x
   _atom_site_fract_y
   _atom_site_fract_z
   _atom_site_charge
opls_142-0    C    0.79483007    0.53506988    0.90611091    0.03350000
opls_234-1    C    0.89660995    0.51055989    0.38069935    0.46520000
opls_700-2    C    0.94927020    0.51017016    0.33815952    -0.11040000
opls_145-3    C    0.97438015    0.48188990    0.58158148    -0.26200000
opls_166-4    C    0.97428988    0.53318017    0.06474946    0.20710000
opls_166-5    C    0.02253014    0.47548011    0.55356999    0.20430000
opls_145-6    C    0.02243984    0.52676996    0.03674034    -0.26650000
opls_700-7    C    0.04754013    0.49848003    0.28015993    -0.11060000
opls_234-8    C    0.10020010    0.49810004    0.23762010    0.46520000
opls_142-9    C    0.20197999    0.47358999    0.71221091    0.03350000
opls_142-10    C    0.49158002    0.20767005    0.36576100    0.02280000
opls_234-11    C    0.48454995    0.10420997    0.05691885    0.46470000
opls_700-12    C    0.49456021    0.05367001    0.18918125    -0.13500000
opls_166-13    C    0.52165008    0.03864999    0.46875104    0.22650000
opls_145-14    C    0.47206010    0.01858990    0.03181066    -0.26650000
opls_145-15    C    0.52476019    0.99006981    0.58655145    -0.26650000
opls_166-16    C    0.47516989    0.97001008    0.14961108    0.22650000
opls_700-17    C    0.50226004    0.95498999    0.42917139    -0.10660000
opls_182-18    C    0.59346027    0.07113006    0.70425943    0.05020000
opls_234-19    C    0.51226990    0.90444007    0.56144089    0.46470000
opls_135-20    C    0.61081000    0.10259007    0.92390042    -0.39460000
opls_182-21    C    0.40336029    0.93751998    0.91410031    0.05020000
opls_135-22    C    0.38601021    0.90605997    0.69445932    -0.39460000
opls_142-23    C    0.50523002    0.80099001    0.25260112    0.02280000
opls_700-24    C    0.51190994    0.75038999    0.28558969    0.05620000
opls_145-25    C    0.54220990    0.72553013    0.51626084    -0.11950000
opls_145-26    C    0.49088006    0.72782012    0.04876118    -0.11740000
opls_145-27    C    0.55356006    0.68088010    0.48250911    -0.11350000
opls_145-28    C    0.50066011    0.68251005    0.02306996    -0.12700000
opls_700-29    C    0.53208994    0.65834989    0.24795110    0.06440000
opls_700-30    C    0.54221990    0.60912004    0.23683088    0.02940000
opls_700-31    C    0.50574008    0.57064009    0.29050041    0.03520000
opls_145-32    C    0.58853997    0.60075013    0.17852081    -0.16430000
opls_700-33    C    0.51672991    0.52388007    0.28287125    -0.00200000
opls_145-34    C    0.45798006    0.57695009    0.36208033    -0.12590000
opls_700-35    C    0.60021995    0.55519985    0.17100068    0.02940000
opls_700-36    C    0.48007988    0.48477018    0.33546953    -0.00200000
opls_700-37    C    0.56428001    0.51617005    0.22280973    0.03520000
opls_145-38    C    0.42310009    0.53969016    0.41255978    -0.12630000
opls_700-39    C    0.65001016    0.54889010    0.09893016    0.06440000
opls_700-40    C    0.43253004    0.49248021    0.39551920    0.03520000
opls_700-41    C    0.49107015    0.43801991    0.32784037    0.03520000
opls_145-42    C    0.57371990    0.46896010    0.20576915    -0.12630000
opls_145-43    C    0.67832021    0.51960010    0.31835074    -0.12340000
opls_145-44    C    0.66901015    0.57224986    0.81209146    -0.11350000
opls_700-45    C    0.39659007    0.45344999    0.44733063    0.02940000
opls_700-46    C    0.45458985    0.39952987    0.38150990    0.02940000
opls_145-47    C    0.53883009    0.43170016    0.25626046    -0.12630000
opls_145-48    C    0.72400996    0.51341010    0.23286106    -0.10570000
opls_145-49    C    0.71421022    0.56469005    0.72166974    -0.12880000
opls_145-50    C    0.40827018    0.40790012    0.43981997    -0.16390000
opls_700-51    C    0.34680026    0.45976009    0.51940114    0.06430000
opls_700-52    C    0.46473018    0.35030008    0.37039916    0.06440000
opls_700-53    C    0.74323019    0.53696991    0.94606028    0.07190000
opls_145-54    C    0.31849020    0.48905009    0.29998057    -0.12330000
opls_145-55    C    0.32781028    0.43641007    0.80623984    -0.11350000
opls_145-56    C    0.49616013    0.32615002    0.59528030    -0.12690000
opls_145-57    C    0.44325004    0.32776987    0.13582930    -0.11500000
opls_145-58    C    0.27281007    0.49525012    0.38546076    -0.10570000
opls_145-59    C    0.28260027    0.44396988    0.89666156    -0.12880000
opls_145-60    C    0.50593022    0.28082985    0.56960093    -0.11740000
opls_145-61    C    0.45461006    0.28313000    0.10209891    -0.11940000
opls_700-62    C    0.25358018    0.47167993    0.67227102    0.07110000
opls_700-63    C    0.48490991    0.25826005    0.33277005    0.05690000
opls_182-64    C    0.02593029    0.40063983    0.91025137    0.05020000
opls_135-65    C    0.04955994    0.37811009    0.20521930    -0.39510000
opls_182-66    C    0.97088001    0.60800994    0.70807046    0.05020000
opls_135-67    C    0.94725003    0.63054010    0.41310015    -0.39460000
opls_910-68    H    0.87843978    0.52551996    0.90562979    0.26910000
opls_910-69    H    0.11838019    0.48313997    0.71268966    0.27160000
opls_144-70    H    0.18877028    0.47348016    0.96476937    0.02790000
opls_144-71    H    0.49497023    0.19080014    0.63349955    0.02790000
opls_910-72    H    0.49699009    0.12587996    0.47893035    0.28460000
opls_146-73    H    0.44998994    0.03062008    0.82324013    0.11500000
opls_146-74    H    0.54683003    0.97804006    0.79511962    0.11500000
opls_185-75    H    0.60303013    0.03461009    0.78602104    0.06990000
opls_185-76    H    0.61119006    0.08531008    0.47310006    0.05930000
opls_140-77    H    0.59805006    0.13739996    0.85496073    0.12230000
opls_140-78    H    0.59808031    0.08689989    0.16356113    0.13340000
opls_140-79    H    0.64959033    0.10690018    0.94022999    0.12250000
opls_185-80    H    0.38563014    0.92333996    0.14525969    0.05930000
opls_185-81    H    0.39379009    0.97403988    0.83234108    0.06990000
opls_910-82    H    0.49983012    0.88277009    0.13942939    0.28460000
opls_140-83    H    0.39873998    0.92175983    0.45480099    0.13330000
opls_140-84    H    0.39877016    0.87125001    0.76340139    0.12220000
opls_140-85    H    0.34723023    0.90174986    0.67812975    0.12250000
opls_144-86    H    0.50183981    0.81786000    0.98486019    0.02790000
opls_146-87    H    0.56259020    0.74424006    0.68254040    0.11790000
opls_146-88    H    0.46870984    0.74750005    0.86609043    0.11400000
opls_146-89    H    0.57736006    0.66195000    0.65719046    0.11560000
opls_146-90    H    0.48063008    0.66393008    0.85493940    0.12000000
opls_146-91    H    0.61629993    0.63053016    0.13746937    0.11310000
opls_146-92    H    0.44992006    0.61216002    0.38062114    0.11470000
opls_146-93    H    0.38752014    0.54546991    0.47189134    0.11560000
opls_146-94    H    0.60928988    0.46317993    0.14643996    0.11550000
opls_146-95    H    0.66215020    0.49712984    0.52701133    0.11880000
opls_146-96    H    0.64695015    0.59450013    0.64445150    0.11790000
opls_146-97    H    0.54689000    0.39649017    0.23771016    0.11470000
opls_146-98    H    0.74655022    0.49212009    0.40335929    0.11540000
opls_146-99    H    0.73034006    0.58745994    0.51354003    0.11510000
opls_146-100    H    0.38052015    0.37812010    0.48087142    0.11350000
opls_146-101    H    0.33466988    0.51153009    0.09131997    0.11750000
opls_146-102    H    0.34987006    0.41416015    0.97389165    0.11790000
opls_146-103    H    0.51618015    0.34472992    0.76340139    0.11880000
opls_146-104    H    0.41945998    0.34669990    0.96115032    0.11500000
opls_146-105    H    0.25027012    0.51653984    0.21496016    0.11540000
opls_146-106    H    0.26647008    0.42119999    0.10479127    0.11520000
opls_146-107    H    0.52810020    0.26116008    0.75226931    0.11400000
opls_146-108    H    0.43423004    0.26442001    0.93580987    0.11780000
opls_185-109    H    0.98682028    0.39840988    0.92901970    0.06990000
opls_185-110    H    0.03266029    0.38097013    0.72128105    0.05930000
opls_140-111    H    0.08827008    0.38374990    0.19331933    0.12220000
opls_140-112    H    0.03936012    0.39324991    0.40396128    0.13490000
opls_140-113    H    0.03851016    0.34019981    0.26176132    0.12280000
opls_185-114    H    0.96415016    0.62769009    0.89704077    0.05950000
opls_185-115    H    0.00999000    0.61023996    0.68929975    0.06990000
opls_140-116    H    0.95744994    0.61540995    0.21436054    0.12840000
opls_140-117    H    0.90855014    0.62489994    0.42500012    0.12210000
opls_140-118    H    0.95830013    0.66844996    0.35656050    0.12280000
opls_146-119    H    0.95411998    0.46303004    0.78510146    0.11540000
opls_146-120    H    0.04269000    0.54562008    0.83322036    0.11600000
opls_144-121    H    0.80804016    0.53518013    0.65355008    0.02790000
opls_750-122    N    0.82134987    0.53336000    0.16261074    -0.17710000
opls_238-123    N    0.87061008    0.53304003    0.12651031    -0.19460000
opls_238-124    N    0.12620024    0.47561016    0.49180915    -0.19460000
opls_750-125    N    0.17546019    0.47529987    0.45571108    -0.17720000
opls_750-126    N    0.49290988    0.18561988    0.13212967    -0.17120000
opls_238-127    N    0.50168014    0.13752000    0.23361948    -0.19660000
opls_238-128    N    0.49514018    0.87114014    0.38474027    -0.19660000
opls_750-129    N    0.50390004    0.82303016    0.48623007    -0.17120000
opls_236-130    O    0.87812990    0.49031996    0.63832969    -0.48800000
opls_236-131    O    0.11868003    0.51832988    0.97998976    -0.48790000
opls_236-132    O    0.46131007    0.11353992    0.80012040    -0.48840000
opls_179-133    O    0.54283013    0.07106995    0.64336128    -0.20310000
opls_179-134    O    0.45399020    0.93759012    0.97500083    -0.20310000
opls_236-135    O    0.53551013    0.89511012    0.81823935    -0.48830000
opls_179-136    O    0.04576014    0.44906988    0.80719022    -0.20020000
opls_179-137    O    0.95105028    0.55958999    0.81113160    -0.19540000
