#======================================================================
# Crystal Data Generated By AuToFF
#----------------------------------------------------------------------

data_AuToFF_phase_1

_cell_length_a                         52.2448
_cell_length_b                         23.5896
_cell_length_c                         7.3368
_cell_angle_alpha                      90.02
_cell_angle_beta                       90.01
_cell_angle_gamma                      91.34
_symmetry_space_group_name_H-M_alt     'P 1'
_symmetry_space_group_IT_number        1

loop_
_space_group_symop_operation_xyz
   'x, y, z'

loop_
   _atom_site_label
   _atom_site_type_symbol
   _atom_site_fract_x
   _atom_site_fract_y
   _atom_site_fract_z
   _atom_site_charge
opls_145-0    C    0.09356013    0.88981007    0.10703985    0.03300000
opls_145-1    C    0.08401998    0.84880000    0.19744030    -0.22380000
opls_145-2    C    0.09621007    0.80180991    0.19584969    -0.22560000
opls_145-3    C    0.11941001    0.79346012    0.11157044    0.18370000
opls_145-4    C    0.13031009    0.83474007    0.02936021    -0.22560000
opls_145-5    C    0.11753010    0.88205022    0.02696952    -0.22340000
opls_531-6    C    0.19370997    0.43430987    0.13877985    0.31280000
opls_531-7    C    0.23316008    0.47388990    0.12959056    0.31230000
opls_531-8    C    0.19487002    0.52228996    0.10519027    0.32310000
opls_522-9    C    0.18240010    0.57347008    0.08500027    -0.01710000
opls_522-10    C    0.18041006    0.38564010    0.15638971    -0.02150000
opls_522-11    C    0.26154003    0.46948988    0.13738960    -0.01710000
opls_523-12    C    0.27356997    0.42317988    0.17182968    -0.22470000
opls_145-13    C    0.29993994    0.41777995    0.17924981    -0.22400000
opls_145-14    C    0.31540996    0.45831985    0.15240023    0.00810000
opls_145-15    C    0.30361995    0.50491015    0.11816051    -0.22370000
opls_523-16    C    0.27700002    0.51041995    0.11101979    -0.22380000
opls_523-17    C    0.19662003    0.61264983    0.01950987    -0.22420000
opls_145-18    C    0.18645011    0.66133006    0.00745966    -0.22380000
opls_145-19    C    0.16166010    0.67351990    0.06211973    0.00800000
opls_145-20    C    0.14709014    0.63451004    0.12645976    -0.22430000
opls_523-21    C    0.15726996    0.58514010    0.13666040    -0.22370000
opls_523-22    C    0.15563994    0.37792984    0.09602006    -0.22490000
opls_145-23    C    0.14511009    0.33013990    0.10336932    -0.22410000
opls_145-24    C    0.15899999    0.28894021    0.17324992    0.00830000
opls_145-25    C    0.18339996    0.29730000    0.23624060    -0.22340000
opls_523-26    C    0.19387010    0.34425993    0.22746020    -0.22280000
opls_142-27    C    0.15216012    0.72694019    0.04863019    0.08990000
opls_142-28    C    0.34347011    0.44964014    0.16071039    0.08990000
opls_142-29    C    0.14932995    0.23694997    0.18515020    0.09000000
opls_145-30    C    0.09237003    0.08052019    0.11606968    0.03160000
opls_145-31    C    0.11630005    0.08556999    0.19560980    -0.22490000
opls_145-32    C    0.12870009    0.13148987    0.19427952    -0.22500000
opls_145-33    C    0.11741003    0.17419990    0.11397067    0.17130000
opls_145-34    C    0.09422003    0.16853002    0.02992040    -0.22260000
opls_145-35    C    0.08238999    0.12280002    0.02731027    -0.22310000
opls_145-36    C    0.46875009    0.45119985    0.09872969    -0.00500000
opls_147-37    C    0.48874008    0.48482986    0.11929043    -0.00400000
opls_145-38    C    0.51391999    0.47039997    0.06876976    -0.03080000
opls_147-39    C    0.51923000    0.42207992    0.00278050    -0.01720000
opls_145-40    C    0.49986006    0.38700026    0.99970968    -0.00680000
opls_145-41    C    0.47509997    0.40275990    0.04346036    -0.15680000
opls_145-42    C    0.48461000    0.53160989    0.19569022    -0.22280000
opls_145-43    C    0.50416002    0.56441989    0.21341048    -0.22470000
opls_147-44    C    0.52863003    0.55278017    0.15008996    -0.01600000
opls_145-45    C    0.53394009    0.50441016    0.08458047    -0.03080000
opls_147-46    C    0.55914004    0.48990020    0.03473040    -0.00400000
opls_145-47    C    0.56326004    0.44320027    0.95786992    -0.22290000
opls_145-48    C    0.54368994    0.41054021    0.93892024    -0.22470000
opls_145-49    C    0.54806008    0.58776997    0.15340067    -0.00680000
opls_145-50    C    0.57284999    0.57184004    0.11095028    -0.15680000
opls_145-51    C    0.57917007    0.52335013    0.05628067    -0.00500000
opls_145-52    C    0.50469992    0.33288999    0.96288027    0.02900000
opls_145-53    C    0.44098007    0.46368020    0.13058963    0.03110000
opls_145-54    C    0.60697002    0.51059994    0.02653064    0.03110000
opls_145-55    C    0.54327011    0.64195003    0.18881938    0.02920000
opls_145-56    C    0.61890001    0.46784020    0.09943027    -0.22100000
opls_145-57    C    0.64540010    0.46084996    0.09549940    -0.22580000
opls_145-58    C    0.66088010    0.49675013    0.02247029    0.19400000
opls_145-59    C    0.64893997    0.53842002    0.94219006    -0.22550000
opls_145-60    C    0.62255010    0.54505001    0.94421955    -0.22340000
opls_145-61    C    0.52582000    0.30704988    0.03524016    -0.22410000
opls_145-62    C    0.52964998    0.25619988    0.00751963    -0.22130000
opls_145-63    C    0.51184998    0.22954014    0.91454040    0.18180000
opls_145-64    C    0.49035990    0.25436996    0.84682968    -0.22460000
opls_145-65    C    0.48693991    0.30556017    0.86902055    -0.22330000
opls_145-66    C    0.42883011    0.50635994    0.05878994    -0.22100000
opls_145-67    C    0.40234011    0.51330017    0.06624005    -0.22580000
opls_145-68    C    0.38707999    0.47739012    0.14159034    0.19400000
opls_145-69    C    0.39925012    0.43561011    0.21950033    -0.22550000
opls_145-70    C    0.42563011    0.42905007    0.21407017    -0.22340000
opls_145-71    C    0.52228999    0.66778016    0.11470941    -0.22410000
opls_145-72    C    0.51866011    0.71879007    0.13946952    -0.22270000
opls_145-73    C    0.53651015    0.74555019    0.23156962    0.17820000
opls_145-74    C    0.55782011    0.72066004    0.30169011    -0.22350000
opls_145-75    C    0.56104014    0.66935993    0.28225930    -0.22270000
opls_145-76    C    0.07779993    0.03213014    0.12262976    -0.00370000
opls_147-77    C    0.05075993    0.03196996    0.13663995    -0.00580000
opls_145-78    C    0.03751005    0.98761985    0.11160043    0.00400000
opls_147-79    C    0.05134009    0.94210023    0.08625014    -0.00620000
opls_145-80    C    0.07841002    0.93957002    0.09938938    -0.00550000
opls_145-81    C    0.09100014    0.98527992    0.11062997    -0.15680000
opls_145-82    C    0.03636003    0.07480995    0.18049013    -0.22410000
opls_145-83    C    0.01018008    0.07595992    0.18046969    -0.22270000
opls_147-84    C    0.99631001    0.03430009    0.13726011    -0.00620000
opls_145-85    C    0.01014014    0.98876989    0.11211018    0.00400000
opls_147-86    C    0.99690001    0.94439988    0.08726011    -0.00580000
opls_145-87    C    0.01130010    0.90155989    0.04343038    -0.22420000
opls_145-88    C    0.03747002    0.90043999    0.04314006    -0.22320000
opls_145-89    C    0.96921992    0.03677004    0.12378966    -0.00330000
opls_145-90    C    0.95665005    0.99101989    0.11276987    -0.15680000
opls_145-91    C    0.96986003    0.94417016    0.10128939    -0.00370000
opls_145-92    C    0.95532001    0.89571015    0.10789990    0.03210000
opls_145-93    C    0.93137998    0.89060015    0.02841021    -0.22490000
opls_145-94    C    0.91905001    0.84461022    0.02912987    -0.22500000
opls_145-95    C    0.93040009    0.80183988    0.10869044    0.17130000
opls_145-96    C    0.95357999    0.80755007    0.19287019    -0.22170000
opls_145-97    C    0.96533005    0.85339000    0.19631992    -0.22310000
opls_531-98    C    0.85407000    0.54158997    0.07052939    0.31290000
opls_531-99    C    0.81462997    0.50177007    0.07083061    0.31230000
opls_531-100    C    0.85281012    0.45364994    0.10567959    0.32300000
opls_522-101    C    0.86518998    0.40256021    0.12972004    -0.01710000
opls_522-102    C    0.86739001    0.59035981    0.05628067    -0.01910000
opls_522-103    C    0.78631012    0.50587996    0.05567005    -0.01710000
opls_523-104    C    0.77434999    0.55188989    0.01573029    -0.22470000
opls_145-105    C    0.74804015    0.55691021    0.00089003    -0.22400000
opls_145-106    C    0.73253996    0.51630986    0.02582052    0.00810000
opls_145-107    C    0.74425998    0.47002006    0.06567032    -0.22370000
opls_523-108    C    0.77083010    0.46486994    0.08019027    -0.22380000
opls_523-109    C    0.85080002    0.36360985    0.19516002    -0.22440000
opls_145-110    C    0.86088995    0.31489003    0.20923972    -0.22380000
opls_145-111    C    0.88575005    0.30249988    0.15667048    0.00800000
opls_145-112    C    0.90049011    0.34131986    0.09302012    -0.22470000
opls_523-113    C    0.89040001    0.39068998    0.08085950    -0.22370000
opls_523-114    C    0.89217013    0.59780008    0.11748991    -0.22490000
opls_145-115    C    0.90268998    0.64565022    0.11342956    -0.22410000
opls_145-116    C    0.88880001    0.68720008    0.04617953    0.00770000
opls_145-117    C    0.86445995    0.67908009    0.98161051    -0.22360000
opls_523-118    C    0.85400995    0.63206035    0.98690982    -0.22310000
opls_142-119    C    0.89519994    0.24910010    0.17140034    0.08990000
opls_142-120    C    0.70453013    0.52467991    0.01004934    0.08990000
opls_142-121    C    0.89832007    0.73936983    0.03871034    0.09010000
opls_141-122    C    0.95403998    0.08647988    0.11550949    0.01400000
opls_142-123    C    0.96360995    0.12754004    0.02558063    -0.22380000
opls_142-124    C    0.95134003    0.17444014    0.02640933    -0.22560000
opls_141-125    C    0.92804010    0.18264010    0.10949051    0.18370000
opls_142-126    C    0.91709994    0.14129984    0.19094973    -0.24210000
opls_261-127    C    0.92995994    0.09408010    0.19406962    -0.06720000
opls_145-128    C    0.09356003    0.88981007    0.60703985    0.03300000
opls_145-129    C    0.08402008    0.84880000    0.69744030    -0.22380000
opls_145-130    C    0.09620998    0.80181034    0.69584969    -0.22560000
opls_145-131    C    0.11941010    0.79346012    0.61157044    0.18370000
opls_145-132    C    0.13030999    0.83474007    0.52936021    -0.22560000
opls_145-133    C    0.11753001    0.88205022    0.52696952    -0.22340000
opls_531-134    C    0.19371007    0.43431029    0.63878939    0.31280000
opls_531-135    C    0.23315998    0.47389033    0.62960010    0.31230000
opls_531-136    C    0.19487012    0.52228996    0.60519027    0.32310000
opls_522-137    C    0.18240001    0.57347008    0.58500027    -0.01710000
opls_522-138    C    0.18040996    0.38564010    0.65638971    -0.02150000
opls_522-139    C    0.26153994    0.46949030    0.63738960    -0.01710000
opls_523-140    C    0.27357007    0.42318031    0.67182968    -0.22470000
opls_145-141    C    0.29994003    0.41777995    0.67924981    -0.22410000
opls_145-142    C    0.31541006    0.45832027    0.65240023    0.00810000
opls_145-143    C    0.30362004    0.50491015    0.61816051    -0.22370000
opls_523-144    C    0.27700012    0.51041995    0.61101979    -0.22380000
opls_523-145    C    0.19662013    0.61265025    0.51950987    -0.22420000
opls_145-146    C    0.18645001    0.66133006    0.50745966    -0.22380000
opls_145-147    C    0.16166001    0.67352033    0.56211973    0.00800000
opls_145-148    C    0.14709004    0.63451004    0.62645976    -0.22430000
opls_523-149    C    0.15727006    0.58514010    0.63666040    -0.22370000
opls_523-150    C    0.15564004    0.37793027    0.59602006    -0.22490000
opls_145-151    C    0.14510999    0.33014033    0.60336932    -0.22410000
opls_145-152    C    0.15900009    0.28894021    0.67324992    0.00830000
opls_145-153    C    0.18340005    0.29730000    0.73624060    -0.22340000
opls_523-154    C    0.19387001    0.34426035    0.72746020    -0.22280000
opls_142-155    C    0.15216002    0.72694019    0.54863973    0.08990000
opls_142-156    C    0.34347002    0.44964014    0.66071039    0.08990000
opls_142-157    C    0.14933005    0.23694997    0.68515020    0.09000000
opls_145-158    C    0.09236994    0.08052019    0.61606968    0.03160000
opls_145-159    C    0.11629996    0.08556999    0.69561934    -0.22490000
opls_145-160    C    0.12870000    0.13149030    0.69427952    -0.22500000
opls_145-161    C    0.11740994    0.17420033    0.61396931    0.17130000
opls_145-162    C    0.09421994    0.16853002    0.52992040    -0.22260000
opls_145-163    C    0.08238990    0.12280002    0.52731027    -0.22310000
opls_145-164    C    0.46875000    0.45120027    0.59872969    -0.00500000
opls_147-165    C    0.48873998    0.48483029    0.61929043    -0.00400000
opls_145-166    C    0.51392009    0.47039997    0.56876976    -0.03080000
opls_147-167    C    0.51923009    0.42207992    0.50278050    -0.01720000
opls_145-168    C    0.49985996    0.38700026    0.49970968    -0.00680000
opls_145-169    C    0.47510007    0.40275990    0.54346036    -0.15680000
opls_145-170    C    0.48461010    0.53161031    0.69569022    -0.22280000
opls_145-171    C    0.50416012    0.56442031    0.71341048    -0.22470000
opls_147-172    C    0.52863012    0.55278017    0.65009950    -0.01600000
opls_145-173    C    0.53393999    0.50441016    0.58458047    -0.03080000
opls_147-174    C    0.55913994    0.48990020    0.53473040    -0.00400000
opls_145-175    C    0.56325995    0.44320027    0.45786992    -0.22290000
opls_145-176    C    0.54369003    0.41054021    0.43892978    -0.22470000
opls_145-177    C    0.54805999    0.58776997    0.65339930    -0.00680000
opls_145-178    C    0.57285008    0.57184004    0.61095028    -0.15680000
opls_145-179    C    0.57916998    0.52335013    0.55627930    -0.00500000
opls_145-180    C    0.50470001    0.33288999    0.46288027    0.02900000
opls_145-181    C    0.44097998    0.46368020    0.63058963    0.03110000
opls_145-182    C    0.60697012    0.51059994    0.52652928    0.03110000
opls_145-183    C    0.54327002    0.64195003    0.68881938    0.02920000
opls_145-184    C    0.61890010    0.46784020    0.59943027    -0.22100000
opls_145-185    C    0.64540000    0.46084996    0.59549940    -0.22580000
opls_145-186    C    0.66088001    0.49675013    0.52247029    0.19400000
opls_145-187    C    0.64894006    0.53842002    0.44219006    -0.22550000
opls_145-188    C    0.62255001    0.54505001    0.44423045    -0.22340000
opls_145-189    C    0.52582010    0.30705030    0.53524016    -0.22410000
opls_145-190    C    0.52965008    0.25620030    0.50753053    -0.22130000
opls_145-191    C    0.51185007    0.22954014    0.41454040    0.18180000
opls_145-192    C    0.49035999    0.25436996    0.34682968    -0.22460000
opls_145-193    C    0.48694001    0.30556017    0.36902055    -0.22330000
opls_145-194    C    0.42883002    0.50635994    0.55878994    -0.22100000
opls_145-195    C    0.40234002    0.51330017    0.56624005    -0.22580000
opls_145-196    C    0.38708009    0.47739012    0.64159034    0.19400000
opls_145-197    C    0.39925003    0.43561011    0.71950033    -0.22550000
opls_145-198    C    0.42563001    0.42905007    0.71407017    -0.22350000
opls_145-199    C    0.52229009    0.66778016    0.61472031    -0.22410000
opls_145-200    C    0.51866002    0.71879007    0.63946952    -0.22270000
opls_145-201    C    0.53651005    0.74555019    0.73156962    0.17820000
opls_145-202    C    0.55782002    0.72066004    0.80169011    -0.22350000
opls_145-203    C    0.56104005    0.66936036    0.78227020    -0.22270000
opls_145-204    C    0.07780003    0.03213014    0.62262976    -0.00370000
opls_147-205    C    0.05076002    0.03196996    0.63663995    -0.00580000
opls_145-206    C    0.03751015    0.98762028    0.61160043    0.00400000
opls_147-207    C    0.05133999    0.94210023    0.58625014    -0.00620000
opls_145-208    C    0.07841011    0.93957002    0.59938938    -0.00550000
opls_145-209    C    0.09100004    0.98527992    0.61062997    -0.15680000
opls_145-210    C    0.03635993    0.07480995    0.68049013    -0.22410000
opls_145-211    C    0.01017998    0.07595992    0.68046969    -0.22270000
opls_147-212    C    0.99630992    0.03430009    0.63726011    -0.00620000
opls_145-213    C    0.01014005    0.98877032    0.61211018    0.00400000
opls_147-214    C    0.99690011    0.94440031    0.58726011    -0.00580000
opls_145-215    C    0.01130001    0.90156032    0.54343038    -0.22420000
opls_145-216    C    0.03747012    0.90043999    0.54314006    -0.22320000
opls_145-217    C    0.96922001    0.03677004    0.62378966    -0.00330000
opls_145-218    C    0.95665015    0.99102031    0.61277941    -0.15680000
opls_145-219    C    0.96986013    0.94417016    0.60128939    -0.00370000
opls_145-220    C    0.95532011    0.89571015    0.60789990    0.03210000
opls_145-221    C    0.93138008    0.89060015    0.52841021    -0.22490000
opls_145-222    C    0.91905011    0.84461022    0.52913941    -0.22500000
opls_145-223    C    0.93040000    0.80184031    0.60869044    0.17130000
opls_145-224    C    0.95358008    0.80755007    0.69287019    -0.22180000
opls_145-225    C    0.96532996    0.85339000    0.69631992    -0.22310000
opls_531-226    C    0.85407010    0.54158997    0.57052939    0.31290000
opls_531-227    C    0.81463006    0.50177007    0.57083061    0.31230000
opls_531-228    C    0.85281003    0.45364994    0.60567959    0.32290000
opls_522-229    C    0.86519008    0.40256021    0.62972004    -0.01710000
opls_522-230    C    0.86739011    0.59036024    0.55627930    -0.01910000
opls_522-231    C    0.78631002    0.50587996    0.55567005    -0.01710000
opls_523-232    C    0.77435009    0.55189031    0.51573029    -0.22470000
opls_145-233    C    0.74804005    0.55691022    0.50089957    -0.22400000
opls_145-234    C    0.73254006    0.51631028    0.52582052    0.00810000
opls_145-235    C    0.74426007    0.47002006    0.56567032    -0.22370000
opls_523-236    C    0.77083000    0.46486994    0.58019027    -0.22380000
opls_523-237    C    0.85079993    0.36361028    0.69516956    -0.22440000
opls_145-238    C    0.86089004    0.31489003    0.70924926    -0.22380000
opls_145-239    C    0.88574996    0.30250031    0.65668002    0.00800000
opls_145-240    C    0.90049002    0.34132029    0.59302012    -0.22470000
opls_523-241    C    0.89040010    0.39068998    0.58085950    -0.22370000
opls_523-242    C    0.89217003    0.59780008    0.61748991    -0.22490000
opls_145-243    C    0.90269008    0.64565022    0.61342956    -0.22410000
opls_145-244    C    0.88880010    0.68720008    0.54617953    0.00770000
opls_145-245    C    0.86446005    0.67908009    0.48162005    -0.22360000
opls_523-246    C    0.85401004    0.63205993    0.48690982    -0.22310000
opls_142-247    C    0.89520004    0.24910010    0.67140034    0.08990000
opls_142-248    C    0.70453004    0.52467991    0.51004934    0.08990000
opls_142-249    C    0.89831998    0.73937025    0.53871034    0.09010000
opls_141-250    C    0.95404008    0.08648030    0.61550949    0.01400000
opls_142-251    C    0.96361004    0.12754004    0.52557927    -0.22380000
opls_142-252    C    0.95133993    0.17444014    0.52640933    -0.22560000
opls_141-253    C    0.92804001    0.18264010    0.60949051    0.18370000
opls_142-254    C    0.91710004    0.14130026    0.69094973    -0.24210000
opls_261-255    C    0.92996004    0.09408010    0.69406962    -0.06720000
opls_520-256    N    0.18133004    0.47971990    0.11962027    -0.33730000
opls_520-257    N    0.21940008    0.43259997    0.14384064    -0.35070000
opls_520-258    N    0.22069002    0.51847003    0.10985034    -0.39600000
opls_750-259    N    0.13051999    0.74304984    0.11366945    -0.19580000
opls_750-260    N    0.12825001    0.22333990    0.11279032    -0.16300000
opls_750-261    N    0.35971007    0.48436003    0.13578944    -0.19640000
opls_237-262    N    0.53304003    0.79793995    0.25347018    -0.62670000
opls_237-263    N    0.51560001    0.17733013    0.88901020    -0.62880000
opls_520-264    N    0.86638007    0.49626016    0.09359939    -0.33710000
opls_520-265    N    0.82839011    0.54314004    0.05908025    -0.35080000
opls_520-266    N    0.82704006    0.45732022    0.09465026    -0.39590000
opls_750-267    N    0.91970012    0.75254993    0.10777042    -0.16370000
opls_750-268    N    0.68822999    0.48998999    0.03387035    -0.19650000
opls_750-269    N    0.91686005    0.23295998    0.10674954    -0.19580000
opls_520-270    N    0.18132995    0.47972033    0.61962027    -0.33740000
opls_520-271    N    0.21939998    0.43259997    0.64383928    -0.35070000
opls_520-272    N    0.22069012    0.51847003    0.60985034    -0.39600000
opls_750-273    N    0.13052009    0.74305026    0.61366945    -0.19580000
opls_750-274    N    0.12824992    0.22334033    0.61279986    -0.16300000
opls_750-275    N    0.35970997    0.48436003    0.63578944    -0.19640000
opls_237-276    N    0.53304012    0.79793995    0.75347018    -0.62670000
opls_237-277    N    0.51559992    0.17733013    0.38901020    -0.62880000
opls_520-278    N    0.86637997    0.49626016    0.59359939    -0.33700000
opls_520-279    N    0.82839001    0.54314004    0.55908025    -0.35080000
opls_520-280    N    0.82703996    0.45732022    0.59465026    -0.39590000
opls_750-281    N    0.91970002    0.75254993    0.60777042    -0.16370000
opls_750-282    N    0.68823008    0.48998999    0.53387989    -0.19650000
opls_750-283    N    0.91685996    0.23295998    0.60674954    -0.19580000
opls_146-284    H    0.06657010    0.85252016    0.26802966    0.22080000
opls_146-285    H    0.08746997    0.77152023    0.26327963    0.22120000
opls_146-286    H    0.14823010    0.83067012    0.96235007    0.22110000
opls_146-287    H    0.12605008    0.91201981    0.95665004    0.22120000
opls_526-288    H    0.26260009    0.39067008    0.19373978    0.22140000
opls_146-289    H    0.30830994    0.38139005    0.20614028    0.22120000
opls_146-290    H    0.31492013    0.53695991    0.09653936    0.22140000
opls_526-291    H    0.26854005    0.54670002    0.08408979    0.22120000
opls_526-292    H    0.21590003    0.60575001    0.97665058    0.08580000
opls_146-293    H    0.19824999    0.68989004    0.95602988    0.22110000
opls_146-294    H    0.12790006    0.64214986    0.16986970    0.08580000
opls_526-295    H    0.14568009    0.55640004    0.18910015    0.22100000
opls_526-296    H    0.14467997    0.40842012    0.03872942    0.22090000
opls_146-297    H    0.12624996    0.32541019    0.05314033    0.22080000
opls_146-298    H    0.19469005    0.26699017    0.29201968    0.22090000
opls_526-299    H    0.21285004    0.34801007    0.27723940    0.22040000
opls_144-300    H    0.16431999    0.75275000    0.98464998    0.10390000
opls_144-301    H    0.35015998    0.41191999    0.18375995    0.10390000
opls_144-302    H    0.16093999    0.20987992    0.25558009    0.10820000
opls_146-303    H    0.12515006    0.05449985    0.26443954    0.22100000
opls_146-304    H    0.14671992    0.13326010    0.25971950    0.22070000
opls_146-305    H    0.08522008    0.19994990    0.96372942    0.22100000
opls_146-306    H    0.06488998    0.12111017    0.95712981    0.22080000
opls_146-307    H    0.46029995    0.37627993    0.03633055    0.22070000
opls_146-308    H    0.46632007    0.54301990    0.24672064    0.09850000
opls_146-309    H    0.49982004    0.59891026    0.28031022    0.22120000
opls_146-310    H    0.58157004    0.43175005    0.90742967    0.09850000
opls_146-311    H    0.54801004    0.37620024    0.87102006    0.22120000
opls_146-312    H    0.58769010    0.59820008    0.11859939    0.22070000
opls_146-313    H    0.60790005    0.44068022    0.16627004    0.22110000
opls_146-314    H    0.65396011    0.42820017    0.15664050    0.22020000
opls_146-315    H    0.65972007    0.56611017    0.87639979    0.22080000
opls_146-316    H    0.61429996    0.57797035    0.88316023    0.22030000
opls_146-317    H    0.53915012    0.32583009    0.11691064    0.22150000
opls_146-318    H    0.54616001    0.23732995    0.06300976    0.22190000
opls_146-319    H    0.47642008    0.23420014    0.77465925    0.22000000
opls_146-320    H    0.47038995    0.32368017    0.81166040    0.22190000
opls_146-321    H    0.43964013    0.53350019    0.99017010    0.22120000
opls_146-322    H    0.39359999    0.54593016    0.00608985    0.22010000
opls_146-323    H    0.38865004    0.40780007    0.28619016    0.22140000
opls_146-324    H    0.43403996    0.39605024    0.27355932    0.22030000
opls_146-325    H    0.50894014    0.64886984    0.03354051    0.22150000
opls_146-326    H    0.50228012    0.73768987    0.08219932    0.22180000
opls_146-327    H    0.57177999    0.74090019    0.37342029    0.22020000
opls_146-328    H    0.57748006    0.65122021    0.34123051    0.22190000
opls_909-329    H    0.51718006    0.81677004    0.20151020    0.25600000
opls_909-330    H    0.54624011    0.81825010    0.32218951    0.25650000
opls_909-331    H    0.50240992    0.15706022    0.81994057    0.25650000
opls_909-332    H    0.53167000    0.15862010    0.93818013    0.25550000
opls_146-333    H    0.11141007    0.98436015    0.11024970    0.09850000
opls_146-334    H    0.04491993    0.10877990    0.21645949    0.22140000
opls_146-335    H    0.00119991    0.11077021    0.21574937    0.22120000
opls_146-336    H    0.00275013    0.86757003    0.00757006    0.22140000
opls_146-337    H    0.04644015    0.86563987    0.00777042    0.22120000
opls_146-338    H    0.93625012    0.99189002    0.11292934    0.09850000
opls_146-339    H    0.92246003    0.92168010    0.96001935    0.22100000
opls_146-340    H    0.90105006    0.84282002    0.96336959    0.22070000
opls_146-341    H    0.96263999    0.77609025    0.25846963    0.22100000
opls_146-342    H    0.98282003    0.85509004    0.26666939    0.22080000
opls_526-343    H    0.78535008    0.58442998    0.99524997    0.22140000
opls_146-344    H    0.73971997    0.59307993    0.96983971    0.22120000
opls_146-345    H    0.73294009    0.43792010    0.08605932    0.22140000
opls_526-346    H    0.77924008    0.42883001    0.11152001    0.22120000
opls_526-347    H    0.83145003    0.37072019    0.23625968    0.09630000
opls_146-348    H    0.84897009    0.28648012    0.26042007    0.22130000
opls_146-349    H    0.91976000    0.33353020    0.05171056    0.08580000
opls_526-350    H    0.90212000    0.41928000    0.02892951    0.22110000
opls_526-351    H    0.90316001    0.56703009    0.17264066    0.22110000
opls_146-352    H    0.92155010    0.65015995    0.16427053    0.22070000
opls_146-353    H    0.85320008    0.70962034    0.92713990    0.22090000
opls_526-354    H    0.83508995    0.62857039    0.93580035    0.22160000
opls_144-355    H    0.88303001    0.22337006    0.23568041    0.10380000
opls_144-356    H    0.69789998    0.56221000    0.98289990    0.10390000
opls_144-357    H    0.88631003    0.76699019    0.97425990    0.10820000
opls_144-358    H    0.98114995    0.12395993    0.95590993    0.22080000
opls_144-359    H    0.96007992    0.20479985    0.95944962    0.22120000
opls_144-360    H    0.89904002    0.14523008    0.25634064    0.22110000
opls_146-361    H    0.06657000    0.85252016    0.76802966    0.22080000
opls_146-362    H    0.08747007    0.77152023    0.76327963    0.22120000
opls_146-363    H    0.14823001    0.83067012    0.46235007    0.22110000
opls_146-364    H    0.12604999    0.91202023    0.45665004    0.22120000
opls_526-365    H    0.26260000    0.39067008    0.69373978    0.22140000
opls_146-366    H    0.30831003    0.38139005    0.70614028    0.22120000
opls_146-367    H    0.31492003    0.53695991    0.59653936    0.22140000
opls_526-368    H    0.26853995    0.54670002    0.58408979    0.22120000
opls_526-369    H    0.21590013    0.60575001    0.47665058    0.08580000
opls_146-370    H    0.19825009    0.68989004    0.45602988    0.22160000
opls_146-371    H    0.12789997    0.64215029    0.66986970    0.08580000
opls_526-372    H    0.14567999    0.55640004    0.68910969    0.22120000
opls_526-373    H    0.14468007    0.40842012    0.53874032    0.22090000
opls_146-374    H    0.12625005    0.32541019    0.55314033    0.22080000
opls_146-375    H    0.19468995    0.26699017    0.79201968    0.22090000
opls_526-376    H    0.21284995    0.34801007    0.77723940    0.22050000
opls_144-377    H    0.16432009    0.75275000    0.48464998    0.10390000
opls_144-378    H    0.35016008    0.41191999    0.68376949    0.10390000
opls_144-379    H    0.16094009    0.20988035    0.75558009    0.10820000
opls_146-380    H    0.12514997    0.05450027    0.76443954    0.22100000
opls_146-381    H    0.14672002    0.13326010    0.75971950    0.22070000
opls_146-382    H    0.08521999    0.19994990    0.46372942    0.22100000
opls_146-383    H    0.06489008    0.12111017    0.45712981    0.22080000
opls_146-384    H    0.46030004    0.37627993    0.53633055    0.22070000
opls_146-385    H    0.46631998    0.54302032    0.74673018    0.09850000
opls_146-386    H    0.49981995    0.59891026    0.78031022    0.22120000
opls_146-387    H    0.58156994    0.43175005    0.40742967    0.09850000
opls_146-388    H    0.54800995    0.37620024    0.37102006    0.22130000
opls_146-389    H    0.58769000    0.59820008    0.61861029    0.22070000
opls_146-390    H    0.60789995    0.44068022    0.66627004    0.22110000
opls_146-391    H    0.65396001    0.42820017    0.65665004    0.22020000
opls_146-392    H    0.65971997    0.56611017    0.37639979    0.22080000
opls_146-393    H    0.61430005    0.57796992    0.38316023    0.22030000
opls_146-394    H    0.53915002    0.32583009    0.61690928    0.22150000
opls_146-395    H    0.54615992    0.23732995    0.56300976    0.22190000
opls_146-396    H    0.47641999    0.23420014    0.27466061    0.21990000
opls_146-397    H    0.47039005    0.32368017    0.31166040    0.22190000
opls_146-398    H    0.43964004    0.53350019    0.49017010    0.22120000
opls_146-399    H    0.39360009    0.54593016    0.50608985    0.22010000
opls_146-400    H    0.38864995    0.40780007    0.78619016    0.22140000
opls_146-401    H    0.43404006    0.39605024    0.77355932    0.22030000
opls_146-402    H    0.50894005    0.64887027    0.53354051    0.22160000
opls_146-403    H    0.50228003    0.73769029    0.58219932    0.22190000
opls_146-404    H    0.57178009    0.74090019    0.87342029    0.22020000
opls_146-405    H    0.57747997    0.65122021    0.84123051    0.22190000
opls_909-406    H    0.51717997    0.81677004    0.70151020    0.25600000
opls_909-407    H    0.54624001    0.81825010    0.82218951    0.25650000
opls_909-408    H    0.50241002    0.15706022    0.31994057    0.25650000
opls_909-409    H    0.53166990    0.15862010    0.43818013    0.25550000
opls_146-410    H    0.11141016    0.98436015    0.61024970    0.09880000
opls_146-411    H    0.04492004    0.10878032    0.71645949    0.22140000
opls_146-412    H    0.00120001    0.11077021    0.71574937    0.22120000
opls_146-413    H    0.00275003    0.86757003    0.50757006    0.22140000
opls_146-414    H    0.04644006    0.86564029    0.50777042    0.22120000
opls_146-415    H    0.93625003    0.99189002    0.61294025    0.09850000
opls_146-416    H    0.92246013    0.92168010    0.46003026    0.22090000
opls_146-417    H    0.90105015    0.84282002    0.46336959    0.22070000
opls_146-418    H    0.96264008    0.77609025    0.75846009    0.22100000
opls_146-419    H    0.98282013    0.85509005    0.76668030    0.22080000
opls_526-420    H    0.78534999    0.58442998    0.49525951    0.22140000
opls_146-421    H    0.73972006    0.59307993    0.46983971    0.22120000
opls_146-422    H    0.73294000    0.43792010    0.58605932    0.22130000
opls_526-423    H    0.77923999    0.42883001    0.61152001    0.22120000
opls_526-424    H    0.83144993    0.37072019    0.73625968    0.09630000
opls_146-425    H    0.84897000    0.28648012    0.76042007    0.22130000
opls_146-426    H    0.91976010    0.33353020    0.55171056    0.08580000
opls_526-427    H    0.90212009    0.41928000    0.52892951    0.22110000
opls_526-428    H    0.90316010    0.56703009    0.67263930    0.22110000
opls_146-429    H    0.92155000    0.65015995    0.66427053    0.22070000
opls_146-430    H    0.85319998    0.70961991    0.42713990    0.22090000
opls_526-431    H    0.83509004    0.62856997    0.43580989    0.22160000
opls_144-432    H    0.88302991    0.22337006    0.73568041    0.10390000
opls_144-433    H    0.69790008    0.56221000    0.48289990    0.10390000
opls_144-434    H    0.88631012    0.76699019    0.47425990    0.10820000
opls_144-435    H    0.98115005    0.12395993    0.45590993    0.22080000
opls_144-436    H    0.96008002    0.20480027    0.45944962    0.22120000
opls_144-437    H    0.89903992    0.14523008    0.75633928    0.22110000
