#======================================================================
# Crystal Data Generated By AuToFF
#----------------------------------------------------------------------

data_AuToFF_phase_1

_cell_length_a                         15.8700
_cell_length_b                         15.8700
_cell_length_c                         3.3000
_cell_angle_alpha                      90.00
_cell_angle_beta                       90.00
_cell_angle_gamma                      120.00
_symmetry_space_group_name_H-M_alt     'P 1'
_symmetry_space_group_IT_number        1

loop_
_space_group_symop_operation_xyz
   'x, y, z'

loop_
   _atom_site_label
   _atom_site_type_symbol
   _atom_site_fract_x
   _atom_site_fract_y
   _atom_site_fract_z
   _atom_site_charge
opls_238-0    N    0.04673983    0.53568004    0.50000000    -0.09040000
opls_238-1    N    0.46432029    0.51106024    0.50000000    -0.09040000
opls_238-2    N    0.48894024    0.95326045    0.50000000    -0.09040000
opls_238-3    N    0.95326017    0.46431996    0.50000000    -0.09040000
opls_238-4    N    0.53567971    0.48893976    0.50000000    -0.09040000
opls_238-5    N    0.51106012    0.04674028    0.50000000    -0.09040000
opls_142-6    C    0.12652049    0.52282044    0.50000000    -0.08180000
opls_142-7    C    0.47718040    0.60370043    0.50000000    -0.08180000
opls_142-8    C    0.39630011    0.87347986    0.50000000    -0.08180000
opls_142-9    C    0.87347987    0.47718029    0.50000000    -0.08180000
opls_142-10    C    0.52281997    0.39630030    0.50000000    -0.08180000
opls_142-11    C    0.60369989    0.12652014    0.50000000    -0.08180000
opls_280-12    C    0.30187020    0.56720984    0.50000000    0.29950000
opls_280-13    C    0.43278986    0.73466984    0.50000000    0.29950000
opls_280-14    C    0.26533053    0.69813051    0.50000000    0.29950000
opls_280-15    C    0.69812980    0.43279016    0.50000000    0.29950000
opls_280-16    C    0.56721014    0.26533016    0.50000000    0.29950000
opls_280-17    C    0.73466983    0.30187022    0.50000000    0.29950000
opls_700-18    C    0.22903008    0.59561025    0.50000000    -0.13890000
opls_700-19    C    0.40438988    0.63341997    0.50000000    -0.13860000
opls_700-20    C    0.36658041    0.77097052    0.50000000    -0.13890000
opls_700-21    C    0.77096992    0.40438975    0.50000000    -0.13890000
opls_700-22    C    0.59560004    0.36658003    0.50000000    -0.13860000
opls_700-23    C    0.63341996    0.22903021    0.50000000    -0.13900000
opls_144-24    H    0.10973968    0.45139997    0.50000000    0.12230000
opls_144-25    H    0.54859987    0.65834026    0.50000000    0.12230000
opls_144-26    H    0.34166018    0.89026050    0.50000000    0.12230000
opls_144-27    H    0.89026032    0.54860003    0.50000000    0.12230000
opls_144-28    H    0.45140013    0.34165974    0.50000000    0.12230000
opls_144-29    H    0.65834019    0.10974023    0.50000000    0.12230000
opls_910-30    H    0.06302983    0.60411007    0.50000000    0.27750000
opls_910-31    H    0.39587983    0.45891026    0.50000000    0.27770000
opls_910-32    H    0.54109008    0.93698040    0.50000000    0.27760000
opls_910-33    H    0.93697017    0.39588993    0.50000000    0.27760000
opls_910-34    H    0.60412053    0.54109047    0.50000000    0.27770000
opls_910-35    H    0.45891029    0.06302032    0.50000000    0.27760000
opls_281-36    O    0.27412004    0.47812035    0.50000000    -0.38840000
opls_281-37    O    0.52188025    0.79599995    0.50000000    -0.38840000
opls_281-38    O    0.20400008    0.72588043    0.50000000    -0.38840000
opls_281-39    O    0.72588033    0.52188038    0.50000000    -0.38840000
opls_281-40    O    0.47811975    0.20400005    0.50000000    -0.38840000
opls_281-41    O    0.79600029    0.27412030    0.50000000    -0.38840000
