#======================================================================
# Crystal Data Generated By AuToFF
#----------------------------------------------------------------------

data_AuToFF_phase_1

_cell_length_a                         36.8970
_cell_length_b                         36.8970
_cell_length_c                         3.9002
_cell_angle_alpha                      90.00
_cell_angle_beta                       90.00
_cell_angle_gamma                      120.00
_symmetry_space_group_name_H-M_alt     'P 1'
_symmetry_space_group_IT_number        1

loop_
_space_group_symop_operation_xyz
   'x, y, z'

loop_
   _atom_site_label
   _atom_site_type_symbol
   _atom_site_fract_x
   _atom_site_fract_y
   _atom_site_fract_z
   _atom_site_charge
opls_700-0    C    0.35742984    0.64648989    0.75105892    0.06780000
opls_145-1    C    0.37694986    0.69036989    0.75574073    -0.17170000
opls_700-2    C    0.38296006    0.62541005    0.71528127    0.06720000
opls_523-3    C    0.36674010    0.58691001    0.54091072    -0.17370000
opls_700-4    C    0.39029992    0.56674993    0.49701041    -0.00680000
opls_521-5    C    0.43205995    0.58739008    0.61736065    0.18270000
opls_522-6    C    0.44842980    0.62549986    0.79047998    -0.16700000
opls_523-7    C    0.42400003    0.64403009    0.84432080    -0.11920000
opls_521-8    C    0.44264994    0.53243001    0.41569919    0.18350000
opls_700-9    C    0.47122000    0.51481986    0.39690016    -0.02470000
opls_166-10    C    0.45641004    0.47139990    0.41775037    0.22770000
opls_523-11    C    0.48542007    0.45720000    0.39641044    -0.30600000
opls_181-12    C    0.40024008    0.40278008    0.60148967    -0.20090000
opls_700-13    C    0.37420008    0.52660002    0.34205938    0.03190000
opls_522-14    C    0.40180983    0.51136987    0.28361879    -0.23890000
opls_700-15    C    0.32858998    0.49648993    0.28752115    0.06690000
opls_145-16    C    0.30244015    0.50656011    0.09732065    -0.11270000
opls_145-17    C    0.25985007    0.47767992    0.05907902    -0.08830000
opls_145-18    C    0.24297007    0.43771997    0.20027947    -0.08520000
opls_145-19    C    0.26866996    0.42665992    0.38040101    -0.08670000
opls_145-20    C    0.31107985    0.45581988    0.42551920    -0.13330000
opls_700-21    C    0.35350992    0.71093994    0.75105892    0.06780000
opls_145-22    C    0.30963010    0.68658004    0.75574073    -0.17170000
opls_700-23    C    0.37459017    0.75755013    0.71528127    0.06720000
opls_523-24    C    0.41308998    0.77982984    0.54091072    -0.17370000
opls_700-25    C    0.43324988    0.82354992    0.49701041    -0.00680000
opls_521-26    C    0.41261000    0.84466983    0.61736065    0.18270000
opls_522-27    C    0.37449992    0.82292996    0.79047998    -0.16700000
opls_523-28    C    0.35597006    0.77997004    0.84432080    -0.11920000
opls_521-29    C    0.46757004    0.91021990    0.41569919    0.18350000
opls_700-30    C    0.48518002    0.95640010    0.39690016    -0.02470000
opls_166-31    C    0.52860002    0.98500989    0.41775037    0.22770000
opls_523-32    C    0.54279980    0.02821986    0.39641044    -0.30600000
opls_181-33    C    0.59722016    0.99746008    0.60148967    -0.20090000
opls_700-34    C    0.47339997    0.84760000    0.34205938    0.03190000
opls_522-35    C    0.48863006    0.89044005    0.28361879    -0.23890000
opls_700-36    C    0.50351000    0.83210009    0.28752115    0.06690000
opls_145-37    C    0.49343986    0.79587992    0.09732065    -0.11270000
opls_145-38    C    0.52232011    0.78217010    0.05907902    -0.08830000
opls_145-39    C    0.56228000    0.80525003    0.20027947    -0.08550000
opls_145-40    C    0.57333990    0.84201004    0.38040101    -0.08670000
opls_145-41    C    0.54418019    0.85526014    0.42551920    -0.13330000
opls_700-42    C    0.28905981    0.64256985    0.75105892    0.06780000
opls_145-43    C    0.31342004    0.62305007    0.75574073    -0.17170000
opls_700-44    C    0.24245020    0.61704013    0.71528127    0.06720000
opls_523-45    C    0.22017004    0.63325983    0.54091072    -0.17370000
opls_700-46    C    0.17645005    0.60969983    0.49701041    -0.00680000
opls_521-47    C    0.15533005    0.56794009    0.61736065    0.18270000
opls_522-48    C    0.17706986    0.55156986    0.79047998    -0.16700000
opls_523-49    C    0.22002991    0.57599987    0.84432080    -0.11920000
opls_521-50    C    0.08978001    0.55735009    0.41569919    0.18350000
opls_700-51    C    0.04359998    0.52878004    0.39690016    -0.02470000
opls_166-52    C    0.01499006    0.54358989    0.41775037    0.22770000
opls_523-53    C    0.97178014    0.51458014    0.39641044    -0.30600000
opls_181-54    C    0.00254003    0.59975984    0.60148967    -0.20090000
opls_700-55    C    0.15239995    0.62579998    0.34205938    0.03190000
opls_522-56    C    0.10956011    0.59819007    0.28361879    -0.23890000
opls_700-57    C    0.16790002    0.67140998    0.28752115    0.06690000
opls_145-58    C    0.20411999    0.69755997    0.09732065    -0.11270000
opls_145-59    C    0.21783009    0.74014998    0.05907902    -0.08830000
opls_145-60    C    0.19474993    0.75703001    0.20027947    -0.08520000
opls_145-61    C    0.15799014    0.73133004    0.38040101    -0.08670000
opls_145-62    C    0.14473996    0.68891998    0.42551920    -0.13330000
opls_700-63    C    0.64257016    0.35351011    0.75105892    0.06780000
opls_145-64    C    0.62305014    0.30963011    0.75574073    -0.17170000
opls_700-65    C    0.61703994    0.37458995    0.71528127    0.06720000
opls_523-66    C    0.63325990    0.41308999    0.54091072    -0.17370000
opls_700-67    C    0.60970008    0.43325007    0.49701041    -0.00680000
opls_521-68    C    0.56794005    0.41260992    0.61736065    0.18270000
opls_522-69    C    0.55157020    0.37450014    0.79047998    -0.16700000
opls_523-70    C    0.57599997    0.35596991    0.84432080    -0.11920000
opls_521-71    C    0.55735006    0.46756999    0.41569919    0.18350000
opls_700-72    C    0.52878000    0.48518014    0.39690016    -0.02470000
opls_166-73    C    0.54358996    0.52860010    0.41775037    0.22770000
opls_523-74    C    0.51457993    0.54280000    0.39641044    -0.30600000
opls_181-75    C    0.59975992    0.59721992    0.60148967    -0.20090000
opls_700-76    C    0.62579992    0.47339998    0.34205938    0.03190000
opls_522-77    C    0.59819017    0.48863013    0.28361879    -0.23890000
opls_700-78    C    0.67141002    0.50351007    0.28752115    0.06690000
opls_145-79    C    0.69755985    0.49343989    0.09732065    -0.11270000
opls_145-80    C    0.74014993    0.52232008    0.05907902    -0.08830000
opls_145-81    C    0.75702993    0.56228003    0.20027947    -0.08520000
opls_145-82    C    0.73133004    0.57334008    0.38040101    -0.08670000
opls_145-83    C    0.68892015    0.54418012    0.42551920    -0.13330000
opls_700-84    C    0.64649008    0.28906006    0.75105892    0.06780000
opls_145-85    C    0.69036990    0.31341996    0.75574073    -0.17170000
opls_700-86    C    0.62540983    0.24244987    0.71528127    0.06720000
opls_523-87    C    0.58690987    0.22016985    0.54091072    -0.17370000
opls_700-88    C    0.56675012    0.17645008    0.49701041    -0.00680000
opls_521-89    C    0.58738984    0.15532986    0.61736065    0.18270000
opls_522-90    C    0.62550008    0.17707004    0.79047998    -0.16700000
opls_523-91    C    0.64402994    0.22002996    0.84432080    -0.11920000
opls_521-92    C    0.53242996    0.08978010    0.41569919    0.18350000
opls_700-93    C    0.51481998    0.04359990    0.39690016    -0.02470000
opls_166-94    C    0.47139998    0.01499011    0.41775037    0.22770000
opls_523-95    C    0.45720005    0.97177983    0.39641044    -0.30600000
opls_181-96    C    0.40277984    0.00253992    0.60148967    -0.20090000
opls_700-97    C    0.52660003    0.15240000    0.34205938    0.03190000
opls_522-98    C    0.51136994    0.10955995    0.28361879    -0.23890000
opls_700-99    C    0.49649000    0.16789991    0.28752115    0.06690000
opls_145-100    C    0.50656014    0.20412008    0.09732065    -0.11270000
opls_145-101    C    0.47767989    0.21782990    0.05907902    -0.08830000
opls_145-102    C    0.43772000    0.19474997    0.20027947    -0.08550000
opls_145-103    C    0.42666010    0.15798996    0.38040101    -0.08670000
opls_145-104    C    0.45581981    0.14473986    0.42551920    -0.13330000
opls_700-105    C    0.71094019    0.35743015    0.75105892    0.06780000
opls_145-106    C    0.68657996    0.37694993    0.75574073    -0.17170000
opls_700-107    C    0.75754980    0.38295987    0.71528127    0.06720000
opls_523-108    C    0.77982980    0.36673986    0.54091072    -0.17370000
opls_700-109    C    0.82354980    0.39029985    0.49701041    -0.00680000
opls_521-110    C    0.84466995    0.43205991    0.61736065    0.18270000
opls_522-111    C    0.82293014    0.44843014    0.79047998    -0.16700000
opls_523-112    C    0.77997009    0.42400013    0.84432080    -0.11920000
opls_521-113    C    0.91021999    0.44264991    0.41569919    0.18350000
opls_700-114    C    0.95640002    0.47121996    0.39690016    -0.02470000
opls_166-115    C    0.98500994    0.45641011    0.41775037    0.22770000
opls_523-116    C    0.02821986    0.48541986    0.39641044    -0.30600000
opls_181-117    C    0.99745982    0.40023985    0.60148967    -0.20090000
opls_700-118    C    0.84760005    0.37420002    0.34205938    0.03190000
opls_522-119    C    0.89043989    0.40180993    0.28361879    -0.23890000
opls_700-120    C    0.83209998    0.32859002    0.28752115    0.06690000
opls_145-121    C    0.79588001    0.30244003    0.09732065    -0.11260000
opls_145-122    C    0.78216991    0.25985002    0.05907902    -0.08830000
opls_145-123    C    0.80525007    0.24296999    0.20027947    -0.08520000
opls_145-124    C    0.84200986    0.26866996    0.38040101    -0.08670000
opls_145-125    C    0.85526004    0.31108002    0.42551920    -0.13330000
opls_520-126    N    0.45628002    0.56966008    0.57679093    -0.29680000
opls_520-127    N    0.43034003    0.88661984    0.57679093    -0.29680000
opls_520-128    N    0.11337995    0.54372008    0.57679093    -0.29680000
opls_520-129    N    0.54371998    0.43033992    0.57679093    -0.29670000
opls_520-130    N    0.56965981    0.11337984    0.57679093    -0.29680000
opls_520-131    N    0.88662005    0.45627992    0.57679093    -0.29680000
opls_179-132    O    0.41336003    0.44393990    0.47790113    -0.21180000
opls_179-133    O    0.55605990    0.96941986    0.47790113    -0.21210000
opls_179-134    O    0.03057991    0.58663994    0.47790113    -0.21180000
opls_179-135    O    0.58663997    0.55606010    0.47790113    -0.21180000
opls_179-136    O    0.44394010    0.03058014    0.47790113    -0.21210000
opls_179-137    O    0.96942009    0.41336006    0.47790113    -0.21180000
opls_146-138    H    0.41063008    0.70855994    0.75315112    0.11510000
opls_526-139    H    0.33578996    0.57322993    0.43846982    0.24310000
opls_525-140    H    0.48005011    0.64051000    0.89021076    0.11150000
opls_526-141    H    0.43733990    0.67270999    0.99125942    0.11970000
opls_526-142    H    0.47444996    0.42401985    0.39091072    0.11440000
opls_185-143    H    0.41877010    0.40412014    0.82977027    0.07220000
opls_185-144    H    0.40305002    0.38327000    0.39883083    0.07240000
opls_185-145    H    0.36682991    0.38778997    0.67681914    0.07200000
opls_525-146    H    0.39073003    0.48253006    0.14185939    0.11890000
opls_146-147    H    0.31455987    0.53644988    0.97564997    0.09420000
opls_146-148    H    0.24008996    0.48608989    0.91459925    0.11600000
opls_146-149    H    0.21006991    0.41524998    0.16780934    0.11830000
opls_146-150    H    0.25563014    0.39566010    0.48965950    0.11570000
opls_146-151    H    0.33015988    0.44679997    0.57346034    0.11130000
opls_146-152    H    0.29143988    0.70206993    0.75315112    0.11510000
opls_526-153    H    0.42676982    0.76255988    0.43846982    0.24310000
opls_525-154    H    0.35948999    0.83953991    0.89021076    0.11150000
opls_526-155    H    0.32728996    0.76463006    0.99125942    0.11970000
opls_526-156    H    0.57598015    0.05043009    0.39091072    0.11440000
opls_185-157    H    0.59587986    0.01464993    0.82977027    0.07220000
opls_185-158    H    0.61673004    0.01977984    0.39883083    0.07240000
opls_185-159    H    0.61220993    0.97904001    0.67681914    0.07200000
opls_525-160    H    0.51746997    0.90820010    0.14185939    0.11890000
opls_146-161    H    0.46354987    0.77810986    0.97564997    0.09420000
opls_146-162    H    0.51391005    0.75400000    0.91459925    0.11600000
opls_146-163    H    0.58474987    0.79481995    0.16780934    0.11820000
opls_146-164    H    0.60434013    0.85997007    0.48965950    0.11860000
opls_146-165    H    0.55319997    0.88336013    0.57346034    0.11130000
opls_146-166    H    0.29793005    0.58937013    0.75315112    0.11510000
opls_526-167    H    0.23744007    0.66420989    0.43846982    0.24310000
opls_525-168    H    0.16046018    0.51995009    0.89021076    0.11150000
opls_526-169    H    0.23536987    0.56265996    0.99125942    0.11970000
opls_526-170    H    0.94957016    0.52555006    0.39091072    0.11440000
opls_185-171    H    0.98535004    0.58122993    0.82977027    0.07220000
opls_185-172    H    0.98022005    0.59694984    0.39883083    0.07240000
opls_185-173    H    0.02095989    0.63317001    0.67681914    0.07200000
opls_525-174    H    0.09180000    0.60926984    0.14185939    0.11890000
opls_146-175    H    0.22189010    0.68543995    0.97564997    0.09420000
opls_146-176    H    0.24599999    0.75991011    0.91459925    0.11600000
opls_146-177    H    0.20517996    0.78993007    0.16780934    0.11820000
opls_146-178    H    0.14003000    0.74436983    0.48965950    0.11570000
opls_146-179    H    0.11663987    0.66983990    0.57346034    0.11130000
opls_146-180    H    0.58936992    0.29144006    0.75315112    0.11510000
opls_526-181    H    0.66421004    0.42677007    0.43846982    0.24310000
opls_525-182    H    0.51994989    0.35949000    0.89021076    0.11150000
opls_526-183    H    0.56266010    0.32729001    0.99125942    0.11970000
opls_526-184    H    0.52554988    0.57597984    0.39091072    0.11440000
opls_185-185    H    0.58122990    0.59587986    0.82977027    0.07220000
opls_185-186    H    0.59694998    0.61673000    0.39883083    0.07240000
opls_185-187    H    0.63317009    0.61221003    0.67681914    0.07200000
opls_525-188    H    0.60926997    0.51746994    0.14185939    0.11890000
opls_146-189    H    0.68544013    0.46355012    0.97564997    0.09420000
opls_146-190    H    0.75991004    0.51391011    0.91459925    0.11600000
opls_146-191    H    0.78993009    0.58475002    0.16780934    0.11820000
opls_146-192    H    0.74436986    0.60433990    0.48965950    0.11570000
opls_146-193    H    0.66984012    0.55320003    0.57346034    0.11130000
opls_146-194    H    0.70856012    0.29793007    0.75315112    0.11510000
opls_526-195    H    0.57323018    0.23744012    0.43846982    0.24310000
opls_525-196    H    0.64051001    0.16046009    0.89021076    0.11150000
opls_526-197    H    0.67271004    0.23536994    0.99125942    0.11970000
opls_526-198    H    0.42401985    0.94956991    0.39091072    0.11440000
opls_185-199    H    0.40412014    0.98535007    0.82977027    0.07220000
opls_185-200    H    0.38326996    0.98022016    0.39883083    0.07240000
opls_185-201    H    0.38779007    0.02095999    0.67681914    0.07200000
opls_525-202    H    0.48253003    0.09179990    0.14185939    0.11890000
opls_146-203    H    0.53645013    0.22189014    0.97564997    0.09420000
opls_146-204    H    0.48608995    0.24600000    0.91459925    0.11600000
opls_146-205    H    0.41525013    0.20518005    0.16780934    0.11820000
opls_146-206    H    0.39565987    0.14002993    0.48965950    0.11860000
opls_146-207    H    0.44680003    0.11663987    0.57346034    0.11130000
opls_146-208    H    0.70206995    0.41062987    0.75315112    0.11510000
opls_526-209    H    0.76255993    0.33579011    0.43846982    0.24310000
opls_525-210    H    0.83953982    0.48004991    0.89021076    0.11150000
opls_526-211    H    0.76463013    0.43734004    0.99125942    0.11970000
opls_526-212    H    0.05042984    0.47444994    0.39091072    0.11440000
opls_185-213    H    0.01464996    0.41877007    0.82977027    0.07220000
opls_185-214    H    0.01977979    0.40304985    0.39883083    0.07240000
opls_185-215    H    0.97904011    0.36682999    0.67681914    0.07200000
opls_525-216    H    0.90819984    0.39072985    0.14185939    0.11890000
opls_146-217    H    0.77810990    0.31456005    0.97564997    0.09420000
opls_146-218    H    0.75400001    0.24008989    0.91459925    0.11600000
opls_146-219    H    0.79482004    0.21006993    0.16780934    0.11820000
opls_146-220    H    0.85996985    0.25562986    0.48965950    0.11860000
opls_146-221    H    0.88336013    0.33016010    0.57346034    0.11130000
