#======================================================================
# Crystal Data Generated By AuToFF
#----------------------------------------------------------------------

data_AuToFF_phase_1

_cell_length_a                         39.8900
_cell_length_b                         39.8900
_cell_length_c                         3.4700
_cell_angle_alpha                      90.00
_cell_angle_beta                       90.00
_cell_angle_gamma                      120.00
_symmetry_space_group_name_H-M_alt     'P 1'
_symmetry_space_group_IT_number        1

loop_
_space_group_symop_operation_xyz
   'x, y, z'

loop_
   _atom_site_label
   _atom_site_type_symbol
   _atom_site_fract_x
   _atom_site_fract_y
   _atom_site_fract_z
   _atom_site_charge
opls_144-0    H    0.72600009    0.84919997    0.00000000    0.11800000
opls_144-1    H    0.83427992    0.96262000    0.00000000    0.10460000
opls_146-2    H    0.73468021    0.95418018    0.00000000    0.12010000
opls_146-3    H    0.61594019    0.93382022    0.00000000    0.12340000
opls_146-4    H    0.54941012    0.92238003    0.00000000    0.12210000
opls_144-5    H    0.50272006    0.94592996    0.00000000    0.11340000
opls_146-6    H    0.40594990    0.95417005    0.00000000    0.12630000
opls_146-7    H    0.33968015    0.94310009    0.00000000    0.11870000
opls_146-8    H    0.22073997    0.92315003    0.00000000    0.12250000
opls_146-9    H    0.14219999    0.96774017    0.00000000    0.12130000
opls_144-10    H    0.15080019    0.87680019    0.00000000    0.11800000
opls_144-11    H    0.03738004    0.87166005    0.00000000    0.10460000
opls_146-12    H    0.04582010    0.78050006    0.00000000    0.12020000
opls_146-13    H    0.06618012    0.68212009    0.00000000    0.12330000
opls_146-14    H    0.07762002    0.62702995    0.00000000    0.12220000
opls_144-15    H    0.05407013    0.55679005    0.00000000    0.11340000
opls_146-16    H    0.04583010    0.45178003    0.00000000    0.12630000
opls_146-17    H    0.05689988    0.39657990    0.00000000    0.11870000
opls_146-18    H    0.07684990    0.29759001    0.00000000    0.12250000
opls_146-19    H    0.03226006    0.17445996    0.00000000    0.12130000
opls_144-20    H    0.12320012    0.27400013    0.00000000    0.11800000
opls_144-21    H    0.12834005    0.16571995    0.00000000    0.10460000
opls_146-22    H    0.21950008    0.26532005    0.00000000    0.12460000
opls_146-23    H    0.31788008    0.38405998    0.00000000    0.12330000
opls_146-24    H    0.37297011    0.45059001    0.00000000    0.12210000
opls_144-25    H    0.44321006    0.49727998    0.00000000    0.11340000
opls_146-26    H    0.54822000    0.59404992    0.00000000    0.12630000
opls_146-27    H    0.60341997    0.66032001    0.00000000    0.11870000
opls_146-28    H    0.70240988    0.77925997    0.00000000    0.12250000
opls_146-29    H    0.82554009    0.85780016    0.00000000    0.12130000
opls_144-30    H    0.27399991    0.15080003    0.00000000    0.11800000
opls_144-31    H    0.16572008    0.03738000    0.00000000    0.10460000
opls_146-32    H    0.26531993    0.04582011    0.00000000    0.12010000
opls_146-33    H    0.38405995    0.06618007    0.00000000    0.12330000
opls_146-34    H    0.45058988    0.07761997    0.00000000    0.12210000
opls_144-35    H    0.49727994    0.05407004    0.00000000    0.11340000
opls_146-36    H    0.59405010    0.04582995    0.00000000    0.12630000
opls_146-37    H    0.66031985    0.05689991    0.00000000    0.11870000
opls_146-38    H    0.77926003    0.07684997    0.00000000    0.12250000
opls_146-39    H    0.85780015    0.03226012    0.00000000    0.12130000
opls_144-40    H    0.84919995    0.12320010    0.00000000    0.11800000
opls_144-41    H    0.96261996    0.12833995    0.00000000    0.10460000
opls_146-42    H    0.95417990    0.21949994    0.00000000    0.12010000
opls_146-43    H    0.93381988    0.31787991    0.00000000    0.12330000
opls_146-44    H    0.92237998    0.37297005    0.00000000    0.12210000
opls_144-45    H    0.94592987    0.44320995    0.00000000    0.11340000
opls_146-46    H    0.95416990    0.54821997    0.00000000    0.12630000
opls_146-47    H    0.94310012    0.60342010    0.00000000    0.11870000
opls_146-48    H    0.92315010    0.70240999    0.00000000    0.12250000
opls_146-49    H    0.96773994    0.82554004    0.00000000    0.12130000
opls_144-50    H    0.87680003    0.72600016    0.00000000    0.11800000
opls_144-51    H    0.87165995    0.83428005    0.00000000    0.10460000
opls_146-52    H    0.78049992    0.73467995    0.00000000    0.12010000
opls_146-53    H    0.68211992    0.61594002    0.00000000    0.12330000
opls_146-54    H    0.62702989    0.54940999    0.00000000    0.12210000
opls_144-55    H    0.55678994    0.50272002    0.00000000    0.11340000
opls_146-56    H    0.45178000    0.40595008    0.00000000    0.12630000
opls_146-57    H    0.39658003    0.33967999    0.00000000    0.11870000
opls_146-58    H    0.29759012    0.22074003    0.00000000    0.12250000
opls_146-59    H    0.17446005    0.14220013    0.00000000    0.12130000
opls_142-60    C    0.75564007    0.85506003    0.00000000    0.01350000
opls_142-61    C    0.80463995    0.95679005    0.00000000    0.01350000
opls_700-62    C    0.79719006    0.98949017    0.00000000    0.06240000
opls_145-63    C    0.75929008    0.98333022    0.00000000    -0.15800000
opls_700-64    C    0.64265014    0.99613006    0.00000000    0.12470000
opls_145-65    C    0.61122005    0.95830023    0.00000000    -0.11230000
opls_145-66    C    0.57340017    0.95185023    0.00000000    -0.11840000
opls_700-67    C    0.56662999    0.98315017    0.00000000    0.07370000
opls_142-68    C    0.52644014    0.97558021    0.00000000    0.01350000
opls_145-69    C    0.40163011    0.97888018    0.00000000    -0.12240000
opls_145-70    C    0.36383016    0.97249010    0.00000000    -0.11230000
opls_261-71    C    0.31847014    0.99726016    0.00000000    -0.10870000
opls_261-72    C    0.28589017    0.99174023    0.00000000    -0.10870000
opls_700-73    C    0.24703004    0.98520021    0.00000000    0.14380000
opls_145-74    C    0.21560002    0.94739006    0.00000000    -0.16580000
opls_700-75    C    0.17760020    0.94075016    0.00000000    0.06340000
opls_145-76    C    0.17142009    0.97250024    0.00000000    -0.16640000
opls_142-77    C    0.14494002    0.90057996    0.00000000    0.01350000
opls_142-78    C    0.04321012    0.84785017    0.00000000    0.01350000
opls_700-79    C    0.01051003    0.80769993    0.00000000    0.06240000
opls_145-80    C    0.01666989    0.77596000    0.00000000    -0.15790000
opls_700-81    C    0.00386995    0.64652005    0.00000000    0.12470000
opls_145-82    C    0.04169989    0.65291997    0.00000000    -0.11230000
opls_145-83    C    0.04815002    0.62154997    0.00000000    -0.11840000
opls_700-84    C    0.01685014    0.58348017    0.00000000    0.07360000
opls_142-85    C    0.02441995    0.55085995    0.00000000    0.01350000
opls_145-86    C    0.02112011    0.42275012    0.00000000    -0.12240000
opls_145-87    C    0.02751015    0.39134018    0.00000000    -0.11230000
opls_261-88    C    0.00274012    0.32120999    0.00000000    -0.10870000
opls_261-89    C    0.00825997    0.29414993    0.00000000    -0.10870000
opls_700-90    C    0.01479988    0.26182989    0.00000000    0.14380000
opls_145-91    C    0.05260995    0.26821013    0.00000000    -0.16580000
opls_700-92    C    0.05925001    0.23684997    0.00000000    0.06330000
opls_145-93    C    0.02750010    0.19891998    0.00000000    -0.16640000
opls_142-94    C    0.09941992    0.24436002    0.00000000    0.01350000
opls_142-95    C    0.15215008    0.19536007    0.00000000    0.01350000
opls_700-96    C    0.19229991    0.20280990    0.00000000    0.06240000
opls_145-97    C    0.22403992    0.24071007    0.00000000    -0.15800000
opls_700-98    C    0.35347991    0.35734989    0.00000000    0.12480000
opls_145-99    C    0.34707995    0.38878010    0.00000000    -0.11230000
opls_145-100    C    0.37844996    0.42660009    0.00000000    -0.11840000
opls_700-101    C    0.41652002    0.43336995    0.00000000    0.07370000
opls_142-102    C    0.44914006    0.47356013    0.00000000    0.01360000
opls_145-103    C    0.57724992    0.59836999    0.00000000    -0.12240000
opls_145-104    C    0.60866008    0.63617001    0.00000000    -0.11230000
opls_261-105    C    0.67879014    0.68153014    0.00000000    -0.10870000
opls_261-106    C    0.70585000    0.71411013    0.00000000    -0.10860000
opls_700-107    C    0.73816998    0.75297019    0.00000000    0.14380000
opls_145-108    C    0.73179018    0.78440011    0.00000000    -0.16580000
opls_700-109    C    0.76315019    0.82240015    0.00000000    0.06330000
opls_145-110    C    0.80107996    0.82858007    0.00000000    -0.16640000
opls_142-111    C    0.24435993    0.14493997    0.00000000    0.01350000
opls_142-112    C    0.19536005    0.04320995    0.00000000    0.01350000
opls_700-113    C    0.20281009    0.01051012    0.00000000    0.06240000
opls_145-114    C    0.24071007    0.01667007    0.00000000    -0.15790000
opls_700-115    C    0.35734986    0.00386994    0.00000000    0.12470000
opls_145-116    C    0.38878009    0.04170006    0.00000000    -0.11230000
opls_145-117    C    0.42659997    0.04815006    0.00000000    -0.11840000
opls_700-118    C    0.43337016    0.01685012    0.00000000    0.07360000
opls_142-119    C    0.47356000    0.02442008    0.00000000    0.01350000
opls_145-120    C    0.59837003    0.02112011    0.00000000    -0.12240000
opls_145-121    C    0.63616984    0.02750990    0.00000000    -0.11230000
opls_261-122    C    0.68153001    0.00274013    0.00000000    -0.10860000
opls_261-123    C    0.71410998    0.00826006    0.00000000    -0.10870000
opls_700-124    C    0.75297011    0.01480008    0.00000000    0.14380000
opls_145-125    C    0.78439998    0.05260994    0.00000000    -0.16580000
opls_700-126    C    0.82239994    0.05925012    0.00000000    0.06330000
opls_145-127    C    0.82858006    0.02750005    0.00000000    -0.16640000
opls_142-128    C    0.85505998    0.09942004    0.00000000    0.01350000
opls_142-129    C    0.95679003    0.15215012    0.00000000    0.01350000
opls_700-130    C    0.98948997    0.19230007    0.00000000    0.06240000
opls_145-131    C    0.98333011    0.22404000    0.00000000    -0.15800000
opls_700-132    C    0.99613005    0.35347995    0.00000000    0.12470000
opls_145-133    C    0.95830011    0.34708003    0.00000000    -0.11230000
opls_145-134    C    0.95184998    0.37845003    0.00000000    -0.11840000
opls_700-135    C    0.98315001    0.41652012    0.00000000    0.07360000
opls_142-136    C    0.97558005    0.44914005    0.00000000    0.01350000
opls_145-137    C    0.97888004    0.57725017    0.00000000    -0.12230000
opls_145-138    C    0.97248999    0.60866011    0.00000000    -0.11230000
opls_261-139    C    0.99725988    0.67879001    0.00000000    -0.10870000
opls_261-140    C    0.99174003    0.70585007    0.00000000    -0.10870000
opls_700-141    C    0.98520012    0.73817011    0.00000000    0.14380000
opls_145-142    C    0.94739019    0.73179016    0.00000000    -0.16580000
opls_700-143    C    0.94074999    0.76315003    0.00000000    0.06330000
opls_145-144    C    0.97249990    0.80108002    0.00000000    -0.16640000
opls_142-145    C    0.90058008    0.75563998    0.00000000    0.01350000
opls_142-146    C    0.84784992    0.80463993    0.00000000    0.01350000
opls_700-147    C    0.80770009    0.79719010    0.00000000    0.06240000
opls_145-148    C    0.77596022    0.75929022    0.00000000    -0.15800000
opls_700-149    C    0.64652009    0.64265011    0.00000000    0.12480000
opls_145-150    C    0.65292020    0.61122019    0.00000000    -0.11230000
opls_145-151    C    0.62155004    0.57339991    0.00000000    -0.11830000
opls_700-152    C    0.58347998    0.56663005    0.00000000    0.07360000
opls_142-153    C    0.55086009    0.52644016    0.00000000    0.01350000
opls_145-154    C    0.42275008    0.40163001    0.00000000    -0.12240000
opls_145-155    C    0.39133992    0.36382999    0.00000000    -0.11230000
opls_261-156    C    0.32121000    0.31847014    0.00000000    -0.10870000
opls_261-157    C    0.29415014    0.28589016    0.00000000    -0.10870000
opls_700-158    C    0.26183017    0.24703010    0.00000000    0.14380000
opls_145-159    C    0.26820982    0.21559989    0.00000000    -0.16570000
opls_700-160    C    0.23684996    0.17760014    0.00000000    0.06330000
opls_145-161    C    0.19892004    0.17141993    0.00000000    -0.16640000
opls_750-162    N    0.78383010    0.89053009    0.00000000    -0.17590000
opls_750-163    N    0.77643994    0.92133012    0.00000000    -0.17150000
opls_750-164    N    0.48089011    0.99626003    0.00000000    -0.17920000
opls_750-165    N    0.10947003    0.89330004    0.00000000    -0.17590000
opls_750-166    N    0.07867012    0.85511011    0.00000000    -0.17150000
opls_750-167    N    0.00373996    0.48463009    0.00000000    -0.17920000
opls_750-168    N    0.10670002    0.21617015    0.00000000    -0.17590000
opls_750-169    N    0.14489008    0.22356006    0.00000000    -0.17150000
opls_750-170    N    0.51537007    0.51911017    0.00000000    -0.17930000
opls_750-171    N    0.21616990    0.10946991    0.00000000    -0.17580000
opls_750-172    N    0.22356006    0.07866988    0.00000000    -0.17150000
opls_750-173    N    0.51910989    0.00373997    0.00000000    -0.17930000
opls_750-174    N    0.89052997    0.10669996    0.00000000    -0.17590000
opls_750-175    N    0.92132988    0.14488989    0.00000000    -0.17140000
opls_750-176    N    0.99626004    0.51536991    0.00000000    -0.17930000
opls_750-177    N    0.89330013    0.78383014    0.00000000    -0.17580000
opls_750-178    N    0.85510992    0.77643994    0.00000000    -0.17150000
opls_750-179    N    0.48463007    0.48089012    0.00000000    -0.17930000
