#======================================================================
# Crystal Data Generated By AuToFF
#----------------------------------------------------------------------

data_AuToFF_phase_1

_cell_length_a                         30.0900
_cell_length_b                         30.0900
_cell_length_c                         6.9600
_cell_angle_alpha                      90.00
_cell_angle_beta                       90.00
_cell_angle_gamma                      120.00
_symmetry_space_group_name_H-M_alt     'P 1'
_symmetry_space_group_IT_number        1

loop_
_space_group_symop_operation_xyz
   'x, y, z'

loop_
   _atom_site_label
   _atom_site_type_symbol
   _atom_site_fract_x
   _atom_site_fract_y
   _atom_site_fract_z
   _atom_site_charge
opls_166-0    C    0.27780003    0.63466021    0.44333046    0.30790000
opls_700-1    C    0.33131996    0.66788021    0.43534052    -0.18230000
opls_166-2    C    0.36388010    0.64706029    0.41177011    0.26500000
opls_700-3    C    0.34354015    0.59379017    0.40351006    -0.18940000
opls_166-4    C    0.29003014    0.56081999    0.41187069    0.25340000
opls_700-5    C    0.25693990    0.58093995    0.43193966    -0.17820000
opls_142-6    C    0.20107007    0.54398992    0.44172989    0.01620000
opls_142-7    C    0.37997030    0.57449029    0.39014943    0.01620000
opls_142-8    C    0.35234998    0.72402998    0.45378017    0.01680000
opls_166-9    C    0.67194998    0.25429012    0.48675000    0.26280000
opls_700-10    C    0.61792987    0.22331007    0.49263937    -0.19110000
opls_166-11    C    0.58738003    0.24632004    0.47970977    0.26840000
opls_700-12    C    0.60957015    0.29939022    0.45437931    -0.13580000
opls_166-13    C    0.66332992    0.33018992    0.44488937    0.25270000
opls_700-14    C    0.69476028    0.30807024    0.46423994    -0.18670000
opls_142-15    C    0.75100988    0.34328996    0.46301006    0.01620000
opls_142-16    C    0.57460984    0.32046994    0.44277011    0.01620000
opls_142-17    C    0.59038000    0.16669020    0.50775000    0.01620000
opls_700-18    C    0.49962009    0.35708995    0.35754023    -0.11710000
opls_145-19    C    0.55431006    0.38688998    0.37081034    0.22180000
opls_145-20    C    0.57748010    0.44031015    0.38484052    -0.11360000
opls_145-21    C    0.54823012    0.46446024    0.39366954    -0.09370000
opls_700-22    C    0.49460991    0.43560001    0.38922989    0.08640000
opls_145-23    C    0.47113005    0.38231992    0.36964943    -0.08300000
opls_700-24    C    0.46310023    0.46073020    0.40487931    0.08630000
opls_145-25    C    0.48630014    0.51381995    0.43225000    -0.08230000
opls_700-26    C    0.45743998    0.53855027    0.45105029    -0.12510000
opls_145-27    C    0.40279008    0.50852997    0.43680029    0.22040000
opls_145-28    C    0.37998012    0.45538995    0.41356034    -0.11350000
opls_145-29    C    0.40951998    0.43170995    0.39805029    -0.09360000
opls_470-30    C    0.46967018    0.30099007    0.32317960    0.72380000
opls_470-31    C    0.48691988    0.59420002    0.49500000    0.72390000
opls_700-32    C    0.60524014    0.05276011    0.51607040    -0.18670000
opls_145-33    C    0.58172003    0.08342012    0.51939943    0.22060000
opls_145-34    C    0.52783016    0.05906012    0.52737931    -0.13690000
opls_145-35    C    0.49761017    0.00574012    0.53067960    -0.09360000
opls_700-36    C    0.52030007    0.97498033    0.52569971    0.07610000
opls_145-37    C    0.57404022    0.99901031    0.51883046    -0.06400000
opls_700-38    C    0.48800995    0.91814020    0.52530029    0.08210000
opls_145-39    C    0.43434991    0.89417009    0.53604023    -0.06400000
opls_700-40    C    0.40289011    0.84045021    0.53476006    -0.14550000
opls_145-41    C    0.42653993    0.80968007    0.51691954    0.22210000
opls_145-42    C    0.48014001    0.83405005    0.51015948    -0.11350000
opls_145-43    C    0.51053015    0.88734012    0.51462931    -0.09390000
opls_470-44    C    0.66165988    0.07482990    0.50853017    0.72390000
opls_470-45    C    0.34723026    0.82032028    0.56127011    0.72380000
opls_145-46    C    0.86980006    0.34336018    0.52250000    -0.13700000
opls_145-47    C    0.83876003    0.36576997    0.53208046    0.20910000
opls_700-48    C    0.86298006    0.42044001    0.54402011    -0.09920000
opls_145-49    C    0.91678024    0.44965021    0.53670977    -0.08320000
opls_700-50    C    0.94745999    0.42691001    0.52338937    0.07750000
opls_145-51    C    0.92329003    0.37329990    0.51857040    -0.09520000
opls_700-52    C    0.00435994    0.45914992    0.51979023    0.07820000
opls_145-53    C    0.03536007    0.43668026    0.52806034    -0.08310000
opls_700-54    C    0.08923002    0.46619018    0.52852011    -0.08670000
opls_145-55    C    0.11301980    0.52081992    0.51491954    0.21110000
opls_145-56    C    0.08165009    0.54288011    0.51026006    -0.11360000
opls_145-57    C    0.02823012    0.51271015    0.51309052    -0.09530000
opls_470-58    C    0.11684000    0.43739020    0.55456034    0.72380000
opls_470-59    C    0.83592015    0.44963026    0.57533046    0.72390000
opls_166-60    C    0.27780003    0.63466021    0.94333046    0.30790000
opls_700-61    C    0.33131996    0.66788021    0.93534052    -0.18230000
opls_166-62    C    0.36388010    0.64706029    0.91177011    0.26500000
opls_700-63    C    0.34354015    0.59379017    0.90351006    -0.18940000
opls_166-64    C    0.29003014    0.56081999    0.91187069    0.25340000
opls_700-65    C    0.25693990    0.58093995    0.93193966    -0.17820000
opls_142-66    C    0.20107007    0.54398992    0.94172989    0.01620000
opls_142-67    C    0.37997030    0.57449029    0.89014943    0.01620000
opls_142-68    C    0.35234998    0.72402998    0.95378017    0.01680000
opls_166-69    C    0.67194998    0.25429012    0.98675000    0.26280000
opls_700-70    C    0.61792987    0.22331007    0.99263937    -0.19110000
opls_166-71    C    0.58738003    0.24632004    0.97970977    0.26840000
opls_700-72    C    0.60957015    0.29939022    0.95438937    -0.13580000
opls_166-73    C    0.66332992    0.33018992    0.94488937    0.25270000
opls_700-74    C    0.69476028    0.30807024    0.96425000    -0.18670000
opls_142-75    C    0.75100988    0.34328996    0.96301006    0.01620000
opls_142-76    C    0.57460984    0.32046994    0.94277011    0.01620000
opls_142-77    C    0.59038000    0.16669020    0.00775000    0.01620000
opls_700-78    C    0.49962009    0.35708995    0.85754023    -0.11710000
opls_145-79    C    0.55431006    0.38688998    0.87081034    0.22180000
opls_145-80    C    0.57748010    0.44031015    0.88484052    -0.11360000
opls_145-81    C    0.54823012    0.46446024    0.89366954    -0.09370000
opls_700-82    C    0.49460991    0.43560001    0.88922989    0.08640000
opls_145-83    C    0.47113005    0.38231992    0.86964943    -0.08300000
opls_700-84    C    0.46310023    0.46073020    0.90488937    0.08630000
opls_145-85    C    0.48630014    0.51381995    0.93223994    -0.08220000
opls_700-86    C    0.45743998    0.53855027    0.95105029    -0.12510000
opls_145-87    C    0.40279008    0.50852997    0.93680029    0.22040000
opls_145-88    C    0.37998012    0.45538995    0.91356034    -0.11350000
opls_145-89    C    0.40951998    0.43170995    0.89805029    -0.09360000
opls_470-90    C    0.46967018    0.30099007    0.82316954    0.72390000
opls_470-91    C    0.48691988    0.59420002    0.99500000    0.72390000
opls_700-92    C    0.60524014    0.05276011    0.01607040    -0.18670000
opls_145-93    C    0.58172003    0.08342012    0.01939943    0.22060000
opls_145-94    C    0.52783016    0.05906012    0.02737931    -0.13690000
opls_145-95    C    0.49761017    0.00574012    0.03067960    -0.09360000
opls_700-96    C    0.52030007    0.97498033    0.02569971    0.07610000
opls_145-97    C    0.57404022    0.99901031    0.01883046    -0.06400000
opls_700-98    C    0.48800995    0.91814020    0.02530029    0.08210000
opls_145-99    C    0.43434991    0.89417009    0.03604023    -0.06400000
opls_700-100    C    0.40289011    0.84045021    0.03476006    -0.14550000
opls_145-101    C    0.42653993    0.80968007    0.01691954    0.22210000
opls_145-102    C    0.48014001    0.83405005    0.01015948    -0.11350000
opls_145-103    C    0.51053015    0.88734012    0.01462931    -0.09390000
opls_470-104    C    0.66165988    0.07482990    0.00853017    0.72390000
opls_470-105    C    0.34723026    0.82032028    0.06127011    0.72370000
opls_145-106    C    0.86980006    0.34336018    0.02250000    -0.13700000
opls_145-107    C    0.83876003    0.36576997    0.03208046    0.20910000
opls_700-108    C    0.86298006    0.42044001    0.04402011    -0.09920000
opls_145-109    C    0.91678024    0.44965021    0.03670977    -0.08320000
opls_700-110    C    0.94745999    0.42691001    0.02338937    0.07750000
opls_145-111    C    0.92329003    0.37329990    0.01857040    -0.09520000
opls_700-112    C    0.00435994    0.45914992    0.01979023    0.07820000
opls_145-113    C    0.03536007    0.43668026    0.02806034    -0.08310000
opls_700-114    C    0.08923002    0.46619018    0.02852011    -0.08670000
opls_145-115    C    0.11301980    0.52081992    0.01491954    0.21110000
opls_145-116    C    0.08165009    0.54288011    0.01026006    -0.11360000
opls_145-117    C    0.02823012    0.51271015    0.01309052    -0.09530000
opls_470-118    C    0.11684000    0.43739020    0.05456034    0.72370000
opls_470-119    C    0.83592015    0.44963026    0.07533046    0.72380000
opls_167-120    O    0.24664984    0.65454992    0.46197989    -0.42100000
opls_167-121    O    0.27013015    0.50963018    0.39989943    -0.42070000
opls_167-122    O    0.41506011    0.67819999    0.39726006    -0.42100000
opls_167-123    O    0.70161021    0.23266011    0.50121983    -0.42060000
opls_167-124    O    0.68509017    0.38133023    0.42132040    -0.42070000
opls_167-125    O    0.53584011    0.21686999    0.48952011    -0.42100000
opls_269-126    O    0.42326010    0.27550991    0.37854023    -0.40610000
opls_268-127    O    0.48838986    0.27801003    0.22959052    -0.41340000
opls_269-128    O    0.46752984    0.61584001    0.59284052    -0.40700000
opls_268-129    O    0.53358015    0.62054017    0.44322989    -0.41370000
opls_269-130    O    0.68052009    0.04533994    0.50171983    -0.40600000
opls_268-131    O    0.69192009    0.12304988    0.50937931    -0.41330000
opls_269-132    O    0.31945017    0.77892028    0.65212931    -0.40830000
opls_268-133    O    0.32722007    0.84641022    0.50313937    -0.41330000
opls_269-134    O    0.15878012    0.45644027    0.64672989    -0.40830000
opls_268-135    O    0.09680014    0.39144009    0.49456034    -0.41330000
opls_268-136    O    0.79433000    0.43066001    0.66976006    -0.41330000
opls_269-137    O    0.85604015    0.49573002    0.51694971    -0.40670000
opls_167-138    O    0.24664984    0.65454992    0.96197989    -0.42110000
opls_167-139    O    0.27013015    0.50963018    0.89989943    -0.42070000
opls_167-140    O    0.41506011    0.67819999    0.89726006    -0.42100000
opls_167-141    O    0.70161021    0.23266011    0.00121983    -0.42060000
opls_167-142    O    0.68509017    0.38133023    0.92132040    -0.42070000
opls_167-143    O    0.53584011    0.21686999    0.98952011    -0.42100000
opls_269-144    O    0.42326010    0.27550991    0.87854023    -0.40620000
opls_268-145    O    0.48838986    0.27801003    0.72959052    -0.41340000
opls_269-146    O    0.46752984    0.61584001    0.09284052    -0.40700000
opls_268-147    O    0.53358015    0.62054017    0.94323994    -0.41360000
opls_269-148    O    0.68052009    0.04533994    0.00171983    -0.40600000
opls_268-149    O    0.69192009    0.12304988    0.00937069    -0.41320000
opls_269-150    O    0.31945017    0.77892028    0.15212931    -0.40820000
opls_268-151    O    0.32722007    0.84641022    0.00313937    -0.41330000
opls_269-152    O    0.15878012    0.45644027    0.14671983    -0.40830000
opls_268-153    O    0.09680014    0.39144009    0.99456034    -0.41330000
opls_268-154    O    0.79433000    0.43066001    0.16976006    -0.41330000
opls_269-155    O    0.85604015    0.49573002    0.01694971    -0.40670000
opls_750-156    N    0.16752023    0.55581015    0.50145977    -0.27950000
opls_750-157    N    0.40004011    0.75472030    0.49772989    -0.28930000
opls_750-158    N    0.36843020    0.52872016    0.44284052    -0.28950000
opls_750-159    N    0.78405017    0.33126019    0.52712069    -0.27950000
opls_750-160    N    0.61186006    0.13858021    0.50957040    -0.27950000
opls_750-161    N    0.58810015    0.36602018    0.38078017    -0.28930000
opls_750-162    N    0.16752023    0.55581015    0.00145977    -0.27950000
opls_750-163    N    0.40004011    0.75472030    0.99772989    -0.28930000
opls_750-164    N    0.36843020    0.52872016    0.94284052    -0.28950000
opls_750-165    N    0.78405017    0.33126019    0.02712069    -0.27960000
opls_750-166    N    0.61186006    0.13858021    0.00957040    -0.27950000
opls_750-167    N    0.58810015    0.36602018    0.88078017    -0.28930000
opls_168-168    H    0.26708019    0.69152030    0.54069971    0.32010000
opls_144-169    H    0.18546009    0.50248017    0.39507040    0.02900000
opls_168-170    H    0.22952999    0.48991009    0.44811063    0.31900000
opls_144-171    H    0.42027002    0.60031007    0.33131034    0.02900000
opls_168-172    H    0.42771026    0.71062025    0.49954023    0.32010000
opls_144-173    H    0.32641001    0.74103006    0.42912069    0.02900000
opls_168-174    H    0.73682018    0.25841005    0.58377011    0.31900000
opls_144-175    H    0.76762018    0.38377010    0.40297989    0.02900000
opls_168-176    H    0.65918003    0.39438000    0.47948994    0.31900000
opls_144-177    H    0.53292025    0.29616021    0.49013937    0.02900000
opls_168-178    H    0.52080991    0.23293986    0.59850000    0.31900000
opls_144-179    H    0.54674012    0.14440014    0.51902011    0.02900000
opls_146-180    H    0.62108998    0.46498022    0.38927011    0.04910000
opls_146-181    H    0.56800003    0.50804990    0.40461063    0.04910000
opls_146-182    H    0.42742996    0.35926006    0.36360057    0.04910000
opls_146-183    H    0.52989014    0.53829009    0.43985057    0.04910000
opls_146-184    H    0.33641006    0.43056024    0.40697989    0.04910000
opls_146-185    H    0.39003016    0.38832022    0.37960057    0.04910000
opls_270-186    H    0.53081010    0.29940020    0.24385057    0.32010000
opls_270-187    H    0.55338005    0.65562020    0.53320977    0.31900000
opls_146-188    H    0.50809983    0.08299992    0.53130029    0.04910000
opls_146-189    H    0.45402990    0.98687003    0.53747989    0.04910000
opls_146-190    H    0.59228012    0.97371012    0.51546983    0.04910000
opls_146-191    H    0.41495006    0.91834013    0.54620977    0.04910000
opls_146-192    H    0.49992988    0.81023996    0.50073994    0.04910000
opls_146-193    H    0.55410986    0.90611005    0.50957040    0.04910000
opls_270-194    H    0.67389986    0.14197984    0.58871983    0.31900000
opls_270-195    H    0.34864992    0.88569998    0.56431034    0.31900000
opls_146-196    H    0.85152018    0.29981004    0.51772989    0.04850000
opls_146-197    H    0.93681990    0.49333006    0.54162069    0.04910000
opls_146-198    H    0.94768019    0.35409019    0.51137069    0.04910000
opls_146-199    H    0.01703001    0.39315008    0.53469971    0.04910000
opls_146-200    H    0.09962003    0.58637000    0.50401006    0.04910000
opls_146-201    H    0.00358012    0.53168001    0.50991954    0.04910000
opls_270-202    H    0.05493984    0.37091988    0.52411063    0.31890000
opls_270-203    H    0.79912013    0.45588997    0.79372989    0.31900000
opls_168-204    H    0.26708019    0.69152030    0.04069971    0.32010000
opls_144-205    H    0.18546009    0.50248017    0.89507040    0.02900000
opls_168-206    H    0.22952999    0.48991009    0.94811063    0.31900000
opls_144-207    H    0.42027002    0.60031007    0.83131034    0.02900000
opls_168-208    H    0.42771026    0.71062025    0.99954023    0.32010000
opls_144-209    H    0.32641001    0.74103006    0.92912069    0.02900000
opls_168-210    H    0.73682018    0.25841005    0.08377011    0.31890000
opls_144-211    H    0.76762018    0.38377010    0.90297989    0.02900000
opls_168-212    H    0.65918003    0.39438000    0.97948994    0.31900000
opls_144-213    H    0.53292025    0.29616021    0.99012931    0.02900000
opls_168-214    H    0.52080991    0.23293986    0.09850000    0.31900000
opls_144-215    H    0.54674012    0.14440014    0.01902011    0.02900000
opls_146-216    H    0.62108998    0.46498022    0.88927011    0.04910000
opls_146-217    H    0.56800003    0.50804990    0.90461063    0.04910000
opls_146-218    H    0.42742996    0.35926006    0.86360057    0.04910000
opls_146-219    H    0.52989014    0.53829009    0.93985057    0.04910000
opls_146-220    H    0.33641006    0.43056024    0.90697989    0.04910000
opls_146-221    H    0.39003016    0.38832022    0.87960057    0.04910000
opls_270-222    H    0.53081010    0.29940020    0.74385057    0.32010000
opls_270-223    H    0.55338005    0.65562020    0.03320977    0.31900000
opls_146-224    H    0.50809983    0.08299992    0.03130029    0.04900000
opls_146-225    H    0.45402990    0.98687003    0.03747989    0.04910000
opls_146-226    H    0.59228012    0.97371012    0.01546983    0.04910000
opls_146-227    H    0.41495006    0.91834013    0.04620977    0.04910000
opls_146-228    H    0.49992988    0.81023996    0.00073994    0.04910000
opls_146-229    H    0.55410986    0.90611005    0.00957040    0.04910000
opls_270-230    H    0.67389986    0.14197984    0.08871983    0.31900000
opls_270-231    H    0.34864992    0.88569998    0.06431034    0.31900000
opls_146-232    H    0.85152018    0.29981004    0.01772989    0.04850000
opls_146-233    H    0.93681990    0.49333006    0.04162069    0.04910000
opls_146-234    H    0.94768019    0.35409019    0.01137069    0.04910000
opls_146-235    H    0.01703001    0.39315008    0.03469971    0.04910000
opls_146-236    H    0.09962003    0.58637000    0.00401006    0.04910000
opls_146-237    H    0.00358012    0.53168001    0.00991954    0.04910000
opls_270-238    H    0.05493984    0.37091988    0.02411063    0.31900000
opls_270-239    H    0.79912013    0.45588997    0.29372989    0.31900000
