#======================================================================
# Crystal Data Generated By AuToFF
#----------------------------------------------------------------------

data_AuToFF_phase_1

_cell_length_a                         35.9556
_cell_length_b                         21.6444
_cell_length_c                         7.7307
_cell_angle_alpha                      89.47
_cell_angle_beta                       89.79
_cell_angle_gamma                      53.38
_symmetry_space_group_name_H-M_alt     'P 1'
_symmetry_space_group_IT_number        1

loop_
_space_group_symop_operation_xyz
   'x, y, z'

loop_
   _atom_site_label
   _atom_site_type_symbol
   _atom_site_fract_x
   _atom_site_fract_y
   _atom_site_fract_z
   _atom_site_charge
opls_716-0    C    0.37397982    0.38261035    0.01162949    -0.05310000
opls_716-1    C    0.36822003    0.32433018    0.00383036    -0.05310000
opls_716-2    C    0.45909000    0.25213008    0.99368981    -0.11450000
opls_716-3    C    0.50704005    0.20122009    0.99272995    -0.11450000
opls_716-4    C    0.59521004    0.14802993    0.01352979    -0.05310000
opls_716-5    C    0.59602999    0.08278026    0.00612003    -0.05310000
opls_700-6    C    0.63308000    0.15630030    0.02527052    0.08470000
opls_700-7    C    0.63587001    0.00057990    0.01339008    0.08830000
opls_145-8    C    0.62396985    0.22212033    0.10823960    -0.11650000
opls_145-9    C    0.67711007    0.10542009    0.94792991    -0.11930000
opls_145-10    C    0.71028037    0.11924957    0.95369032    -0.11900000
opls_700-11    C    0.70047993    0.18588002    0.03342022    0.07470000
opls_145-12    C    0.65665999    0.23692000    0.11082939    -0.11520000
opls_145-13    C    0.63263004    0.94519997    0.93383999    -0.12240000
opls_145-14    C    0.67742007    0.97323013    0.10207041    -0.11520000
opls_145-15    C    0.71445013    0.89531995    0.10534064    -0.11920000
opls_700-16    C    0.71141979    0.84073035    0.02194985    0.07490000
opls_145-17    C    0.66944007    0.86720987    0.93827058    -0.11920000
opls_142-18    C    0.75069988    0.75886034    0.02287995    0.03080000
opls_142-19    C    0.73296001    0.20571998    0.03184979    0.03110000
opls_145-20    C    0.80276020    0.18544961    0.96493949    0.21230000
opls_145-21    C    0.78557011    0.63238977    0.91879022    0.21690000
opls_145-22    C    0.83039010    0.59526991    0.99060974    -0.16000000
opls_145-23    C    0.77522001    0.58699011    0.83258067    -0.17070000
opls_145-24    C    0.78672002    0.25465994    0.87677013    -0.16960000
opls_145-25    C    0.84779001    0.14091017    0.03595051    -0.17070000
opls_700-26    C    0.33949995    0.46708985    0.02130046    0.08380000
opls_145-27    C    0.35192990    0.51042010    0.10456060    -0.08060000
opls_145-28    C    0.32179985    0.59045014    0.10916970    -0.11910000
opls_700-29    C    0.27738998    0.63095009    0.03335942    0.07520000
opls_145-30    C    0.26464024    0.58824981    0.95062966    -0.11920000
opls_145-31    C    0.29524009    0.50833007    0.94268047    -0.11900000
opls_700-32    C    0.32553996    0.32894027    0.00725970    0.08380000
opls_145-33    C    0.28455991    0.38731024    0.09354945    -0.11950000
opls_145-34    C    0.24539994    0.38844007    0.09506038    -0.11920000
opls_700-35    C    0.24563990    0.33033007    0.01251948    0.06420000
opls_145-36    C    0.28681032    0.27081966    0.92966036    -0.11920000
opls_145-37    C    0.32563006    0.27035006    0.92637979    -0.13070000
opls_142-38    C    0.20514999    0.32943990    0.01362034    0.03210000
opls_142-39    C    0.24619993    0.71530047    0.03746014    0.03110000
opls_145-40    C    0.17522997    0.83435005    0.97643056    0.21960000
opls_145-41    C    0.18947007    0.87477006    0.89010976    -0.17690000
opls_145-42    C    0.13029991    0.87604023    0.04745063    -0.17070000
opls_145-43    C    0.17140992    0.26877006    0.91305051    0.22050000
opls_145-44    C    0.12665010    0.31740006    0.98656982    -0.15970000
opls_145-45    C    0.18354020    0.20179991    0.82653955    -0.16850000
opls_145-46    C    0.15921998    0.95465018    0.87393973    -0.11820000
opls_700-47    C    0.11442003    0.99732020    0.94743964    0.07560000
opls_145-48    C    0.10107997    0.95621030    0.03709017    -0.11930000
opls_700-49    C    0.08394007    0.08240965    0.92848965    0.03060000
opls_145-50    C    0.10469025    0.12042979    0.93767941    -0.13840000
opls_700-51    C    0.08064025    0.19970980    0.90518023    0.03180000
opls_700-52    C    0.03172029    0.24554969    0.87908051    0.03340000
opls_700-53    C    0.00869022    0.20969971    0.88820946    -0.00280000
opls_700-54    C    0.03518000    0.12750992    0.89926976    0.03350000
opls_145-55    C    0.01107014    0.09415987    0.87292943    -0.11920000
opls_145-56    C    0.96371022    0.13840971    0.87066950    -0.11920000
opls_700-57    C    0.93597009    0.22017995    0.89551055    0.03350000
opls_700-58    C    0.95890019    0.25619971    0.88683048    -0.00280000
opls_145-59    C    0.00404011    0.32623974    0.83688966    -0.11930000
opls_145-60    C    0.95659998    0.37055991    0.83622992    -0.12320000
opls_700-61    C    0.93231007    0.33845001    0.87737942    0.03360000
opls_700-62    C    0.88338025    0.38412980    0.90274050    0.03230000
opls_145-63    C    0.86279000    0.34654994    0.93230061    -0.12710000
opls_700-64    C    0.88709022    0.26635977    0.92151067    0.03690000
opls_700-65    C    0.10919018    0.22849983    0.90118947    0.07580000
opls_145-66    C    0.15312994    0.18221008    0.82078949    -0.11940000
opls_145-67    C    0.09650004    0.29689988    0.98177961    -0.11130000
opls_700-68    C    0.85965024    0.23574975    0.93655009    0.07560000
opls_700-69    C    0.85181020    0.46955989    0.90244944    0.07560000
opls_145-70    C    0.86246991    0.51539022    0.98404988    -0.11930000
opls_145-71    C    0.80764999    0.50743985    0.82449954    -0.11930000
opls_145-72    C    0.87507989    0.16701010    0.02594967    -0.13070000
opls_145-73    C    0.81505998    0.27836018    0.86068031    -0.11930000
opls_716-74    C    0.37398018    0.38339973    0.49569036    -0.05310000
opls_716-75    C    0.36930996    0.32394021    0.48579042    -0.05310000
opls_716-76    C    0.45943988    0.25638021    0.45732988    -0.11450000
opls_716-77    C    0.50736009    0.20545013    0.45679950    -0.11450000
opls_716-78    C    0.59550989    0.14847013    0.49826981    -0.05310000
opls_716-79    C    0.59526021    0.08431965    0.48871008    -0.05310000
opls_700-80    C    0.63370995    0.15541997    0.52110965    0.08550000
opls_700-81    C    0.63416010    0.00190995    0.50553985    0.08810000
opls_145-82    C    0.62404009    0.22103999    0.60710058    -0.11130000
opls_145-83    C    0.67819991    0.10463012    0.44716992    -0.11950000
opls_145-84    C    0.71099017    0.11922983    0.45572969    -0.11920000
opls_700-85    C    0.70036009    0.18644006    0.53527977    0.07500000
opls_145-86    C    0.65638014    0.23661987    0.61229052    -0.11920000
opls_145-87    C    0.63126007    0.94598016    0.42690952    -0.12310000
opls_145-88    C    0.67499980    0.97492032    0.59915010    -0.11920000
opls_145-89    C    0.71196007    0.89699002    0.60551980    -0.11950000
opls_700-90    C    0.70955999    0.84194999    0.52087034    0.07520000
opls_145-91    C    0.66799009    0.86800006    0.43439042    -0.11920000
opls_142-92    C    0.74902016    0.76015991    0.52329972    0.03090000
opls_142-93    C    0.73245003    0.20716001    0.53359938    0.03080000
opls_145-94    C    0.80223986    0.18714014    0.46488969    0.21610000
opls_145-95    C    0.78486990    0.63342003    0.41845065    0.21460000
opls_145-96    C    0.82958000    0.59672022    0.49090015    -0.16000000
opls_145-97    C    0.77493018    0.58754992    0.33184008    -0.16960000
opls_145-98    C    0.78638998    0.25613019    0.37608000    -0.16810000
opls_145-99    C    0.84733001    0.14236003    0.53546993    -0.17220000
opls_700-100    C    0.33901996    0.46736022    0.51654065    0.08400000
opls_145-101    C    0.35188008    0.50954981    0.60254969    -0.14780000
opls_145-102    C    0.32198008    0.58959019    0.61011985    -0.11900000
opls_700-103    C    0.27742017    0.63106993    0.53518017    0.07490000
opls_145-104    C    0.26397996    0.58930999    0.45265997    -0.11910000
opls_145-105    C    0.29430016    0.50946002    0.44171997    -0.11920000
opls_700-106    C    0.32749009    0.32639981    0.49911065    0.08430000
opls_145-107    C    0.28720011    0.38364986    0.59051013    -0.11920000
opls_145-108    C    0.24809993    0.38462014    0.59515028    -0.11930000
opls_700-109    C    0.24773021    0.32735984    0.51126016    0.06240000
opls_145-110    C    0.28847996    0.26826984    0.42553959    -0.12760000
opls_145-111    C    0.32722001    0.26796009    0.41919965    -0.11130000
opls_142-112    C    0.20708007    0.32685994    0.51383961    0.03210000
opls_142-113    C    0.24654997    0.71549026    0.53949951    0.03080000
opls_145-114    C    0.17562009    0.83480020    0.47664983    0.21970000
opls_145-115    C    0.18970990    0.87531027    0.38967058    -0.17390000
opls_145-116    C    0.13064005    0.87645007    0.54723007    -0.17070000
opls_145-117    C    0.17236019    0.26790976    0.41217021    0.21910000
opls_145-118    C    0.12768012    0.31682984    0.48628975    -0.15700000
opls_145-119    C    0.18406010    0.20125979    0.32532938    -0.16800000
opls_145-120    C    0.15934012    0.95518002    0.37305943    -0.11130000
opls_700-121    C    0.11454011    0.99783998    0.44663049    0.07560000
opls_145-122    C    0.10130995    0.95661034    0.53642979    -0.11930000
opls_700-123    C    0.08400999    0.08298997    0.42809963    0.03240000
opls_145-124    C    0.10481009    0.12094988    0.43737994    -0.13290000
opls_700-125    C    0.08079991    0.20028001    0.40561035    0.03310000
opls_700-126    C    0.03183017    0.24624987    0.38028032    0.03370000
opls_700-127    C    0.00874987    0.21048012    0.38906000    -0.01870000
opls_700-128    C    0.03520999    0.12824976    0.39945022    0.03350000
opls_145-129    C    0.01105012    0.09501983    0.37301028    -0.11910000
opls_145-130    C    0.96367998    0.13931995    0.37069990    -0.11920000
opls_700-131    C    0.93596021    0.22108976    0.39564961    0.03350000
opls_700-132    C    0.95893001    0.25706005    0.38770043    -0.01830000
opls_145-133    C    0.00414005    0.32706024    0.33927054    -0.11930000
opls_145-134    C    0.95670018    0.37143988    0.33871041    -0.12310000
opls_700-135    C    0.93233994    0.33934014    0.37873059    0.03360000
opls_700-136    C    0.88337988    0.38508010    0.40342028    0.03180000
opls_145-137    C    0.86276996    0.34745002    0.43213050    -0.13280000
opls_700-138    C    0.88704012    0.26727986    0.42108055    0.03230000
opls_700-139    C    0.10955025    0.22872972    0.40120952    0.07560000
opls_145-140    C    0.15337987    0.18222011    0.32006054    -0.11950000
opls_145-141    C    0.09725998    0.29687014    0.48194972    -0.08060000
opls_700-142    C    0.85950006    0.23680023    0.43559994    0.07560000
opls_700-143    C    0.85166007    0.47054992    0.40283040    0.07570000
opls_145-144    C    0.86193013    0.51685998    0.48467016    -0.12320000
opls_145-145    C    0.80761009    0.50804012    0.32415997    -0.11930000
opls_145-146    C    0.87478015    0.16814998    0.52510042    -0.11130000
opls_145-147    C    0.81491016    0.27949978    0.35960985    -0.11650000
opls_633-148    S    0.43195005    0.35194999    0.99938942    0.08270000
opls_633-149    S    0.41998017    0.22889995    0.99371050    0.08740000
opls_633-150    S    0.53967014    0.23765010    0.99739986    0.07860000
opls_633-151    S    0.54119995    0.10026004    0.99200942    0.08400000
opls_633-152    S    0.43071012    0.35656005    0.46358056    0.07870000
opls_633-153    S    0.42156011    0.23055004    0.45216064    0.08210000
opls_633-154    S    0.54145997    0.23898010    0.46265952    0.08210000
opls_633-155    S    0.54020997    0.10459987    0.45138965    0.07860000
opls_750-156    N    0.77487004    0.15996991    0.97620030    -0.26340000
opls_750-157    N    0.74992013    0.71155020    0.92513017    -0.26090000
opls_750-158    N    0.20403005    0.75362979    0.98366051    -0.25770000
opls_750-159    N    0.20602991    0.27964010    0.91928955    -0.25680000
opls_750-160    N    0.77428002    0.16182011    0.47697970    -0.26370000
opls_750-161    N    0.74898983    0.71251039    0.42401056    -0.26110000
opls_750-162    N    0.20446991    0.75410012    0.48461066    -0.25770000
opls_750-163    N    0.20722006    0.27824972    0.41764991    -0.25970000
opls_146-164    H    0.59091012    0.26248999    0.17557032    0.08330000
opls_146-165    H    0.68542026    0.05487986    0.87685034    0.06880000
opls_146-166    H    0.74396018    0.07902993    0.89010976    0.07510000
opls_146-167    H    0.64817983    0.28892015    0.17610975    0.10470000
opls_146-168    H    0.60120008    0.96342022    0.86158065    0.14690000
opls_146-169    H    0.68066989    0.01333010    0.17391063    0.07720000
opls_146-170    H    0.74620998    0.87627996    0.17628050    0.14690000
opls_146-171    H    0.66612997    0.82562024    0.87336020    0.11020000
opls_144-172    H    0.78033999    0.74098038    0.11152018    0.04890000
opls_144-173    H    0.71869985    0.26458015    0.08242964    0.04720000
opls_146-174    H    0.84032004    0.62829977    0.05660028    0.06680000
opls_146-175    H    0.74102006    0.61523979    0.77149029    0.07990000
opls_146-176    H    0.75229019    0.28897987    0.81517008    0.07510000
opls_146-177    H    0.86038004    0.08782993    0.10864062    0.08750000
opls_146-178    H    0.38552002    0.48131008    0.17135964    0.11370000
opls_146-179    H    0.33266980    0.62211033    0.17566992    0.10580000
opls_146-180    H    0.23054022    0.61878993    0.88731946    0.06680000
opls_146-181    H    0.28473022    0.47773988    0.86955054    0.06880000
opls_146-182    H    0.28339985    0.43198013    0.16538967    0.06720000
opls_146-183    H    0.21425986    0.43470036    0.16470018    0.10580000
opls_146-184    H    0.28779016    0.22478971    0.86473057    0.11370000
opls_146-185    H    0.35629011    0.22423968    0.85446066    0.15110000
opls_144-186    H    0.17540995    0.37182005    0.09977039    0.04720000
opls_144-187    H    0.26111010    0.74441995    0.09121967    0.04960000
opls_146-188    H    0.22387005    0.84311001    0.82919014    0.07530000
opls_146-189    H    0.11920978    0.84550048    0.11924040    0.08750000
opls_146-190    H    0.11540000    0.37072009    0.05304029    0.08330000
opls_146-191    H    0.21764014    0.16478988    0.76386968    0.07990000
opls_146-192    H    0.17048985    0.98410034    0.79813980    0.11490000
opls_146-193    H    0.06756993    0.98719040    0.10425013    0.12090000
opls_146-194    H    0.06311016    0.33363999    0.04945960    0.08640000
opls_146-195    H    0.16348016    0.13036986    0.74947059    0.11480000
opls_146-196    H    0.79874988    0.47413025    0.75273953    0.08600000
opls_146-197    H    0.89592004    0.48820991    0.05049965    0.06680000
opls_146-198    H    0.90855980    0.13391023    0.09426999    0.13030000
opls_146-199    H    0.80234019    0.33062975    0.78389982    0.15110000
opls_146-200    H    0.02099990    0.35342020    0.80306972    0.13030000
opls_146-201    H    0.93694000    0.43196015    0.80171014    0.06930000
opls_146-202    H    0.82570032    0.38182967    0.96568978    0.10480000
opls_146-203    H    0.94691019    0.11023963    0.84760975    0.09400000
opls_146-204    H    0.03078023    0.03185965    0.85179067    0.10300000
opls_146-205    H    0.14173010    0.08643003    0.97190037    0.11010000
opls_146-206    H    0.59075020    0.26054985    0.67393973    0.11440000
opls_146-207    H    0.68709999    0.05375009    0.37598944    0.07380000
opls_146-208    H    0.74498013    0.07931966    0.39397957    0.08640000
opls_146-209    H    0.64742007    0.28871015    0.67867044    0.10470000
opls_146-210    H    0.60025982    0.96372034    0.35214059    0.08600000
opls_146-211    H    0.67778995    0.01540988    0.67160995    0.07170000
opls_146-212    H    0.74325000    0.87833030    0.67946988    0.08610000
opls_146-213    H    0.66502005    0.82608994    0.36915017    0.11370000
opls_144-214    H    0.77816993    0.74264035    0.61429043    0.04890000
opls_144-215    H    0.71797997    0.26607999    0.58433965    0.04730000
opls_146-216    H    0.83924009    0.63010003    0.55704981    0.07510000
opls_146-217    H    0.74083991    0.61540030    0.27010937    0.06930000
opls_146-218    H    0.75195980    0.29057028    0.31452004    0.08640000
opls_146-219    H    0.85982020    0.08936992    0.60836961    0.13040000
opls_146-220    H    0.38569004    0.47938997    0.66828022    0.15110000
opls_146-221    H    0.33326004    0.62046030    0.67759028    0.10580000
opls_146-222    H    0.22957994    0.62061987    0.39137943    0.08480000
opls_146-223    H    0.28325998    0.47967994    0.36853959    0.06720000
opls_146-224    H    0.28650005    0.42773019    0.66312004    0.07960000
opls_146-225    H    0.21743012    0.43025005    0.66791025    0.10580000
opls_146-226    H    0.28913013    0.22262980    0.36026053    0.08670000
opls_146-227    H    0.35742996    0.22227007    0.34472954    0.15120000
opls_144-228    H    0.17783998    0.36856005    0.60256004    0.04720000
opls_144-229    H    0.26163004    0.74426022    0.59372991    0.04960000
opls_146-230    H    0.22412003    0.84370007    0.32881047    0.08480000
opls_146-231    H    0.11961013    0.84587995    0.61927985    0.08750000
opls_146-232    H    0.11670990    0.37000001    0.55281067    0.08510000
opls_146-233    H    0.21806006    0.16402994    0.26205023    0.07990000
opls_146-234    H    0.17055987    0.98465042    0.29693998    0.10590000
opls_146-235    H    0.06776991    0.98750008    0.60343969    0.10960000
opls_146-236    H    0.06396995    0.33384992    0.55017043    0.07510000
opls_146-237    H    0.16344000    0.13059985    0.24842989    0.15110000
opls_146-238    H    0.79898000    0.47444023    0.25200023    0.10480000
opls_146-239    H    0.89527011    0.49008991    0.55161021    0.07990000
opls_146-240    H    0.90828000    0.13486017    0.59326939    0.08750000
opls_146-241    H    0.80228995    0.33165996    0.28253960    0.15110000
opls_146-242    H    0.02111014    0.35431985    0.30641045    0.10310000
opls_146-243    H    0.93707989    0.43294030    0.30522033    0.06680000
opls_146-244    H    0.82565001    0.38272994    0.46502940    0.10470000
opls_146-245    H    0.94687005    0.11119013    0.34750044    0.08750000
opls_146-246    H    0.03072021    0.03272976    0.35177967    0.10300000
opls_146-247    H    0.14188009    0.08681001    0.47107052    0.10470000
