#======================================================================
# Crystal Data Generated By AuToFF
#----------------------------------------------------------------------

data_AuToFF_phase_1

_cell_length_a                         28.7810
_cell_length_b                         28.7810
_cell_length_c                         3.5954
_cell_angle_alpha                      90.00
_cell_angle_beta                       90.00
_cell_angle_gamma                      120.00
_symmetry_space_group_name_H-M_alt     'P 1'
_symmetry_space_group_IT_number        1

loop_
_space_group_symop_operation_xyz
   'x, y, z'

loop_
   _atom_site_label
   _atom_site_type_symbol
   _atom_site_fract_x
   _atom_site_fract_y
   _atom_site_fract_z
   _atom_site_charge
opls_145-0    C    0.72405996    0.36340987    0.50000000    -0.11250000
opls_280-1    C    0.69460007    0.39125010    0.50000000    0.25670000
opls_142-2    C    0.77559985    0.38742985    0.50000000    0.10150000
opls_916-3    C    0.86598994    0.46068980    0.50000000    0.15780000
opls_145-4    C    0.88424004    0.42341008    0.50000000    -0.22230000
opls_145-5    C    0.93572012    0.43925997    0.50000000    -0.21470000
opls_700-6    C    0.97250004    0.49294004    0.50000000    0.07930000
opls_145-7    C    0.95542018    0.53154012    0.50000000    -0.10720000
opls_260-8    C    0.90217972    0.51540978    0.50000000    -0.00700000
opls_261-9    C    0.88603993    0.55566000    0.50000000    0.20310000
opls_145-10    C    0.63658989    0.36065000    0.50000000    -0.11250000
opls_280-11    C    0.60875009    0.30334988    0.50000000    0.25670000
opls_142-12    C    0.61257015    0.38817007    0.50000000    0.10150000
opls_916-13    C    0.53930985    0.40529980    0.50000000    0.15780000
opls_145-14    C    0.57658981    0.46082981    0.50000000    -0.22230000
opls_145-15    C    0.56073988    0.49645979    0.50000000    -0.21470000
opls_700-16    C    0.50706012    0.47955995    0.50000000    0.07930000
opls_145-17    C    0.46845987    0.42387988    0.50000000    -0.10720000
opls_260-18    C    0.48458990    0.38676987    0.50000000    -0.00700000
opls_261-19    C    0.44434018    0.33038008    0.50000000    0.20310000
opls_145-20    C    0.63935015    0.27594014    0.50000000    -0.11250000
opls_280-21    C    0.69664984    0.30540002    0.50000000    0.25670000
opls_142-22    C    0.61183001    0.22440008    0.50000000    0.10150000
opls_916-23    C    0.59470001    0.13401000    0.50000000    0.15780000
opls_145-24    C    0.53917014    0.11576011    0.50000000    -0.22230000
opls_145-25    C    0.50353980    0.06427983    0.50000000    -0.21470000
opls_700-26    C    0.52043984    0.02750001    0.50000000    0.07930000
opls_145-27    C    0.57611996    0.04458000    0.50000000    -0.10720000
opls_260-28    C    0.61322984    0.09781995    0.50000000    -0.00700000
opls_261-29    C    0.66961989    0.11395992    0.50000000    0.20310000
opls_145-30    C    0.27593984    0.63658973    0.50000000    -0.11250000
opls_280-31    C    0.30539993    0.60874990    0.50000000    0.25670000
opls_142-32    C    0.22439995    0.61256975    0.50000000    0.10150000
opls_916-33    C    0.13400986    0.53930980    0.50000000    0.15780000
opls_145-34    C    0.11575996    0.57658992    0.50000000    -0.22230000
opls_145-35    C    0.06427988    0.56074003    0.50000000    -0.21470000
opls_700-36    C    0.02749996    0.50705996    0.50000000    0.07930000
opls_145-37    C    0.04457982    0.46845988    0.50000000    -0.10720000
opls_260-38    C    0.09782008    0.48458982    0.50000000    -0.00700000
opls_261-39    C    0.11396007    0.44434000    0.50000000    0.20310000
opls_145-40    C    0.36341011    0.63935000    0.50000000    -0.11250000
opls_280-41    C    0.39124971    0.69664972    0.50000000    0.25670000
opls_142-42    C    0.38742985    0.61182993    0.50000000    0.10150000
opls_916-43    C    0.46068995    0.59469980    0.50000000    0.15780000
opls_145-44    C    0.42340998    0.53916978    0.50000000    -0.22230000
opls_145-45    C    0.43925991    0.50353981    0.50000000    -0.21470000
opls_700-46    C    0.49293988    0.52044005    0.50000000    0.07930000
opls_145-47    C    0.53154013    0.57612012    0.50000000    -0.10720000
opls_260-48    C    0.51541010    0.61323013    0.50000000    -0.00700000
opls_261-49    C    0.55565982    0.66961992    0.50000000    0.20310000
opls_145-50    C    0.36064985    0.72405986    0.50000000    -0.11250000
opls_280-51    C    0.30335016    0.69459998    0.50000000    0.25680000
opls_142-52    C    0.38816999    0.77559992    0.50000000    0.10150000
opls_916-53    C    0.40529999    0.86599000    0.50000000    0.15780000
opls_145-54    C    0.46082986    0.88423989    0.50000000    -0.22230000
opls_145-55    C    0.49646000    0.93571976    0.50000000    -0.21470000
opls_700-56    C    0.47956016    0.97249999    0.50000000    0.07940000
opls_145-57    C    0.42388004    0.95542000    0.50000000    -0.10720000
opls_260-58    C    0.38677016    0.90218005    0.50000000    -0.00700000
opls_261-59    C    0.33038011    0.88604008    0.50000000    0.20320000
opls_281-60    O    0.71733987    0.44004994    0.50000000    -0.40140000
opls_281-61    O    0.55994992    0.27728978    0.50000000    -0.40140000
opls_281-62    O    0.72271001    0.28265988    0.50000000    -0.40140000
opls_281-63    O    0.28266013    0.55995006    0.50000000    -0.40140000
opls_281-64    O    0.44004988    0.72270982    0.50000000    -0.40130000
opls_281-65    O    0.27728978    0.71733972    0.50000000    -0.40120000
opls_238-66    N    0.81127988    0.44314000    0.50000000    -0.24940000
opls_262-67    N    0.87327010    0.58790985    0.50000000    -0.34540000
opls_238-68    N    0.55686006    0.36814004    0.50000000    -0.24930000
opls_262-69    N    0.41209001    0.28535997    0.50000000    -0.34540000
opls_238-70    N    0.63186006    0.18871996    0.50000000    -0.24940000
opls_262-71    N    0.71464024    0.12673019    0.50000000    -0.34530000
opls_238-72    N    0.18872012    0.55686000    0.50000000    -0.24940000
opls_262-73    N    0.12672990    0.41209015    0.50000000    -0.34540000
opls_238-74    N    0.44313994    0.63185996    0.50000000    -0.24940000
opls_262-75    N    0.58790999    0.71464003    0.50000000    -0.34540000
opls_238-76    N    0.36813994    0.81128004    0.50000000    -0.24930000
opls_262-77    N    0.28535976    0.87326981    0.50000000    -0.34540000
opls_144-78    H    0.79033018    0.36108008    0.50000000    0.10520000
opls_910-79    H    0.80036990    0.47235997    0.50000000    0.23340000
opls_146-80    H    0.86263997    0.38054000    0.50000000    0.21530000
opls_146-81    H    0.94414010    0.40698004    0.50000000    0.21380000
opls_146-82    H    0.98085987    0.57428983    0.50000000    0.09360000
opls_144-83    H    0.63891984    0.42924998    0.50000000    0.10520000
opls_910-84    H    0.52763993    0.32800978    0.50000000    0.23350000
opls_146-85    H    0.61946004    0.48209996    0.50000000    0.21530000
opls_146-86    H    0.59301996    0.53715976    0.50000000    0.21380000
opls_146-87    H    0.42570987    0.40657001    0.50000000    0.09360000
opls_144-88    H    0.57074998    0.20966994    0.50000000    0.10520000
opls_910-89    H    0.67198997    0.19962985    0.50000000    0.23340000
opls_146-90    H    0.51789999    0.13736004    0.50000000    0.21530000
opls_146-91    H    0.46283974    0.05585980    0.50000000    0.21380000
opls_146-92    H    0.59342992    0.01914016    0.50000000    0.09360000
opls_144-93    H    0.20966982    0.63891992    0.50000000    0.10520000
opls_910-94    H    0.19963010    0.52764003    0.50000000    0.23340000
opls_146-95    H    0.13736003    0.61946000    0.50000000    0.21540000
opls_146-96    H    0.05585990    0.59301996    0.50000000    0.21380000
opls_146-97    H    0.01913993    0.42570977    0.50000000    0.09360000
opls_144-98    H    0.36108016    0.57075002    0.50000000    0.10520000
opls_910-99    H    0.47235987    0.67198982    0.50000000    0.23340000
opls_146-100    H    0.38053996    0.51790004    0.50000000    0.21530000
opls_146-101    H    0.40697984    0.46283984    0.50000000    0.21380000
opls_146-102    H    0.57429013    0.59342999    0.50000000    0.09360000
opls_144-103    H    0.42925002    0.79033006    0.50000000    0.10520000
opls_910-104    H    0.32800983    0.80036975    0.50000000    0.23350000
opls_146-105    H    0.48210001    0.86263996    0.50000000    0.21530000
opls_146-106    H    0.53716006    0.94413980    0.50000000    0.21380000
opls_146-107    H    0.40657008    0.98085984    0.50000000    0.09360000
