#======================================================================
# Crystal Data Generated By AuToFF
#----------------------------------------------------------------------

data_AuToFF_phase_1

_cell_length_a                         29.3509
_cell_length_b                         29.3509
_cell_length_c                         3.4357
_cell_angle_alpha                      90.00
_cell_angle_beta                       90.00
_cell_angle_gamma                      120.00
_symmetry_space_group_name_H-M_alt     'P 1'
_symmetry_space_group_IT_number        1

loop_
_space_group_symop_operation_xyz
   'x, y, z'

loop_
   _atom_site_label
   _atom_site_type_symbol
   _atom_site_fract_x
   _atom_site_fract_y
   _atom_site_fract_z
   _atom_site_charge
opls_145-0    C    0.94774006    0.46496998    0.48632884    -0.11330000
opls_145-1    C    0.98288984    0.44937984    0.40874058    -0.25060000
opls_166-2    C    0.03518979    0.48375975    0.40819047    0.18710000
opls_234-3    C    0.89327997    0.42622006    0.48294962    0.30620000
opls_142-4    C    0.77135993    0.41036004    0.27332130    0.02260000
opls_145-5    C    0.71791008    0.37066986    0.27459033    0.00760000
opls_145-6    C    0.70374990    0.31942005    0.27388014    -0.14760000
opls_182-7    C    0.94518978    0.57961975    0.83121926    0.04640000
opls_145-8    C    0.05229996    0.53487973    0.49699042    -0.11330000
opls_145-9    C    0.01714983    0.55046987    0.57431091    -0.25060000
opls_166-10    C    0.96487003    0.51606007    0.57608930    0.18710000
opls_234-11    C    0.10674010    0.57365995    0.50009023    0.30630000
opls_142-12    C    0.22864003    0.58966986    0.71306866    0.02260000
opls_145-13    C    0.28207985    0.62933998    0.71156969    0.00760000
opls_145-14    C    0.29624991    0.68060002    0.71227988    -0.14750000
opls_182-15    C    0.05490002    0.42018984    0.15386966    0.04640000
opls_142-16    C    0.58203988    0.68227989    0.01110982    -0.16660000
opls_143-17    C    0.62224993    0.72773002    0.07360072    -0.34300000
opls_142-18    C    0.41794992    0.31798999    0.97489012    -0.16670000
opls_143-19    C    0.37391998    0.27569975    0.02997060    -0.32950000
opls_145-20    C    0.53503013    0.48276992    0.48632884    -0.11330000
opls_145-21    C    0.55061983    0.53350987    0.40874058    -0.25060000
opls_166-22    C    0.51624006    0.55142980    0.40819047    0.18710000
opls_234-23    C    0.57377977    0.46705979    0.48294962    0.30620000
opls_142-24    C    0.58963999    0.36099979    0.27332130    0.02260000
opls_145-25    C    0.62932995    0.34723980    0.27459033    0.00760000
opls_145-26    C    0.68057997    0.38432992    0.27388014    -0.14760000
opls_182-27    C    0.42038013    0.36557006    0.83121926    0.04640000
opls_145-28    C    0.46511988    0.51741970    0.49699042    -0.11330000
opls_145-29    C    0.44952984    0.46667975    0.57431091    -0.25060000
opls_166-30    C    0.48394004    0.44880979    0.57608930    0.18710000
opls_234-31    C    0.42633981    0.53307987    0.50009023    0.30620000
opls_142-32    C    0.41032987    0.63896992    0.71306866    0.02260000
opls_145-33    C    0.37065982    0.65273974    0.71156969    0.00760000
opls_145-34    C    0.31940012    0.61565002    0.71227988    -0.14760000
opls_182-35    C    0.57981001    0.63471005    0.15386966    0.04640000
opls_142-36    C    0.31772004    0.89975974    0.01110982    -0.16660000
opls_143-37    C    0.27227008    0.89451989    0.07360072    -0.34300000
opls_142-38    C    0.68201010    0.09996015    0.97489012    -0.16670000
opls_143-39    C    0.72429990    0.09822009    0.02997060    -0.32950000
opls_145-40    C    0.51723015    0.05226009    0.48632884    -0.11330000
opls_145-41    C    0.46648980    0.01710989    0.40874058    -0.25060000
opls_166-42    C    0.44856976    0.96480967    0.40819047    0.18710000
opls_234-43    C    0.53293992    0.10672015    0.48294962    0.30620000
opls_142-44    C    0.63899988    0.22863978    0.27332130    0.02260000
opls_145-45    C    0.65276012    0.28208995    0.27459033    0.00760000
opls_145-46    C    0.61567013    0.29625003    0.27388014    -0.14760000
opls_182-47    C    0.63442990    0.05480980    0.83121926    0.04640000
opls_145-48    C    0.48257977    0.94769978    0.49699042    -0.11330000
opls_145-49    C    0.53332013    0.98284998    0.57431091    -0.25060000
opls_166-50    C    0.55118993    0.03513014    0.57608930    0.18710000
opls_234-51    C    0.46691990    0.89325979    0.50009023    0.30620000
opls_142-52    C    0.36102990    0.77135983    0.71306866    0.02260000
opls_145-53    C    0.34725979    0.71791989    0.71156969    0.00760000
opls_145-54    C    0.38434997    0.70374997    0.71227988    -0.14760000
opls_182-55    C    0.36528977    0.94509972    0.15386966    0.04640000
opls_142-56    C    0.10023988    0.41795998    0.01110982    -0.16660000
opls_143-57    C    0.10547999    0.37775010    0.07360072    -0.34300000
opls_142-58    C    0.90003999    0.58204986    0.97489012    -0.16660000
opls_143-59    C    0.90177992    0.62607977    0.02997060    -0.32950000
opls_238-60    N    0.85754005    0.43697005    0.34955031    -0.26500000
opls_750-61    N    0.80640992    0.39975994    0.35281020    -0.04590000
opls_238-62    N    0.14246998    0.56303979    0.63584131    -0.26490000
opls_750-63    N    0.19359996    0.60024006    0.63213028    -0.04670000
opls_238-64    N    0.56302983    0.42056987    0.34955031    -0.26490000
opls_750-65    N    0.60023980    0.40664977    0.35281020    -0.04590000
opls_238-66    N    0.43695976    0.57942973    0.63584131    -0.26500000
opls_750-67    N    0.39976001    0.59336007    0.63213028    -0.04670000
opls_238-68    N    0.57943013    0.14246008    0.34955031    -0.26500000
opls_750-69    N    0.59335008    0.19358990    0.35281020    -0.04590000
opls_238-70    N    0.42056987    0.85752969    0.63584131    -0.26500000
opls_750-71    N    0.40664004    0.80639987    0.63213028    -0.04670000
opls_236-72    O    0.88036983    0.38351988    0.59451931    -0.43330000
opls_179-73    O    0.92893990    0.53056990    0.67083855    -0.20570000
opls_236-74    O    0.11963995    0.61627004    0.38629974    -0.43320000
opls_179-75    O    0.07113015    0.46910003    0.31728032    -0.21040000
opls_236-76    O    0.61648003    0.49684975    0.59451931    -0.43310000
opls_179-77    O    0.46942987    0.39837001    0.67083855    -0.20570000
opls_236-78    O    0.38372990    0.50336977    0.38629974    -0.43310000
opls_179-79    O    0.53089979    0.60202969    0.31728032    -0.21050000
opls_236-80    O    0.50314994    0.11962997    0.59451931    -0.43320000
opls_179-81    O    0.60162989    0.07106008    0.67083855    -0.20570000
opls_236-82    O    0.49662996    0.88035980    0.38629974    -0.43320000
opls_179-83    O    0.39796986    0.92886989    0.31728032    -0.21050000
opls_146-84    H    0.96880989    0.40993987    0.34659895    0.20730000
opls_910-85    H    0.86805997    0.47211986    0.22710074    0.22700000
opls_144-86    H    0.78122014    0.44901004    0.21324039    0.10150000
opls_146-87    H    0.69156022    0.42390011    0.27229095    0.20720000
opls_146-88    H    0.03123013    0.58992007    0.63603050    0.20720000
opls_910-89    H    0.13191991    0.52801980    0.76102104    0.22700000
opls_144-90    H    0.21875986    0.55103993    0.77450010    0.10120000
opls_146-91    H    0.30841987    0.57609006    0.71395058    0.20720000
opls_185-92    H    0.96587995    0.61049002    0.61794976    0.07380000
opls_185-93    H    0.97240978    0.58725982    0.06770091    0.08330000
opls_185-94    H    0.02836976    0.41330984    0.91399133    0.08480000
opls_185-95    H    0.03324984    0.38895999    0.36270920    0.08010000
opls_144-96    H    0.55011989    0.67977975    0.85106965    0.20710000
opls_144-97    H    0.65524993    0.73199972    0.22850074    0.14270000
opls_144-98    H    0.62241009    0.76122002    0.96639113    0.14300000
opls_144-99    H    0.45256993    0.31818001    0.04797858    0.20730000
opls_144-100    H    0.37320009    0.24202996    0.13958145    0.14300000
opls_144-101    H    0.33848991    0.27435979    0.96770964    0.14290000
opls_146-102    H    0.59005989    0.55887001    0.34659895    0.20720000
opls_910-103    H    0.52788011    0.39593991    0.22710074    0.22700000
opls_144-104    H    0.55098990    0.33220988    0.21324039    0.10150000
opls_146-105    H    0.57609990    0.26765998    0.27229095    0.20730000
opls_146-106    H    0.41007975    0.44130978    0.63603050    0.20720000
opls_910-107    H    0.47197987    0.60389997    0.76102104    0.22810000
opls_144-108    H    0.44895990    0.66771970    0.77450010    0.10120000
opls_146-109    H    0.42390997    0.73232979    0.71395058    0.20720000
opls_185-110    H    0.38951003    0.35539012    0.61794976    0.07380000
opls_185-111    H    0.41273986    0.38514979    0.06770091    0.08330000
opls_185-112    H    0.58669004    0.61505990    0.91399133    0.08470000
opls_185-113    H    0.61104008    0.64429003    0.36270920    0.08010000
opls_144-114    H    0.32021985    0.87033998    0.85106965    0.20710000
opls_144-115    H    0.26799993    0.92324999    0.22850074    0.14270000
opls_144-116    H    0.23878010    0.86119000    0.96639113    0.14300000
opls_144-117    H    0.68182011    0.13439001    0.04797858    0.20730000
opls_144-118    H    0.75796987    0.13116993    0.13958145    0.14300000
opls_144-119    H    0.72564005    0.06413013    0.96770964    0.14290000
opls_146-120    H    0.44113022    0.03119012    0.34659895    0.20720000
opls_910-121    H    0.60406006    0.13193984    0.22710074    0.22710000
opls_144-122    H    0.66778995    0.21878008    0.21324039    0.10150000
opls_146-123    H    0.73233988    0.30843991    0.27229095    0.20720000
opls_146-124    H    0.55868993    0.96876976    0.63603050    0.20720000
opls_910-125    H    0.39610002    0.86807983    0.76102104    0.22710000
opls_144-126    H    0.33228004    0.78123998    0.77450010    0.10120000
opls_146-127    H    0.26766996    0.69157976    0.71395058    0.20720000
opls_185-128    H    0.64461002    0.03411986    0.61794976    0.07380000
opls_185-129    H    0.61485016    0.02759000    0.06770091    0.08330000
opls_185-130    H    0.38494000    0.97162986    0.91399133    0.08470000
opls_185-131    H    0.35571008    0.96674998    0.36270920    0.08010000
opls_144-132    H    0.12966006    0.44987987    0.85106965    0.20720000
opls_144-133    H    0.07674994    0.34474989    0.22850074    0.14270000
opls_144-134    H    0.13881015    0.37758998    0.96639113    0.14300000
opls_144-135    H    0.86560996    0.54742998    0.04797858    0.20730000
opls_144-136    H    0.86882984    0.62679971    0.13958145    0.14300000
opls_144-137    H    0.93586985    0.66150969    0.96770964    0.14290000
