#======================================================================
# Crystal Data Generated By AuToFF
#----------------------------------------------------------------------

data_AuToFF_phase_1

_cell_length_a                         36.6493
_cell_length_b                         15.7584
_cell_length_c                         4.8096
_cell_angle_alpha                      93.08
_cell_angle_beta                       90.01
_cell_angle_gamma                      93.72
_symmetry_space_group_name_H-M_alt     'P 1'
_symmetry_space_group_IT_number        1

loop_
_space_group_symop_operation_xyz
   'x, y, z'

loop_
   _atom_site_label
   _atom_site_type_symbol
   _atom_site_fract_x
   _atom_site_fract_y
   _atom_site_fract_z
   _atom_site_charge
opls_916-0    C    0.09123002    0.91374000    0.21724972    0.16870000
opls_145-1    C    0.07368020    0.83607018    0.30378980    -0.14080000
opls_145-2    C    0.09274021    0.75674987    0.33899967    -0.13210000
opls_145-3    C    0.12952012    0.75301019    0.28645971    0.16860000
opls_145-4    C    0.14677004    0.82933015    0.18466965    -0.14080000
opls_145-5    C    0.12778000    0.90880034    0.15137956    -0.12600000
opls_145-6    C    0.17971020    0.49662971    0.43710009    -0.07460000
opls_700-7    C    0.19708018    0.41483000    0.48093024    0.05690000
opls_145-8    C    0.23454016    0.41245994    0.50086932    -0.11220000
opls_700-9    C    0.25487004    0.49000010    0.46812059    0.05480000
opls_145-10    C    0.23727006    0.57124991    0.42859017    -0.06380000
opls_700-11    C    0.19976001    0.57545013    0.41371082    0.04240000
opls_142-12    C    0.18260999    0.66278981    0.36731957    0.01380000
opls_142-13    C    0.29431020    0.48638018    0.44781922    0.01380000
opls_142-14    C    0.17721992    0.33009983    0.48870098    0.07360000
opls_916-15    C    0.08948996    0.08053968    0.25371932    0.17700000
opls_145-16    C    0.11361000    0.08775012    0.47163117    -0.21040000
opls_145-17    C    0.13188008    0.16753015    0.51991929    -0.15300000
opls_145-18    C    0.12587000    0.24189981    0.35232987    0.16620000
opls_145-19    C    0.10063001    0.23591005    0.14351928    -0.20290000
opls_145-20    C    0.08280993    0.15587974    0.09262009    -0.15300000
opls_145-21    C    0.65079020    0.59801031    0.57234057    0.17290000
opls_145-22    C    0.63480015    0.55377016    0.79222010    -0.19640000
opls_145-23    C    0.59884009    0.56825964    0.85497113    -0.18480000
opls_916-24    C    0.57787004    0.62685978    0.69917108    0.15810000
opls_145-25    C    0.59394001    0.67106987    0.47873977    -0.15300000
opls_145-26    C    0.63037007    0.65803038    0.41981997    -0.18500000
opls_916-27    C    0.52293016    0.72527982    0.73469953    0.15910000
opls_916-28    C    0.52065005    0.56850999    0.88699109    0.15670000
opls_145-29    C    0.45841006    0.19517027    0.22091021    -0.18480000
opls_145-30    C    0.47640993    0.11377024    0.23264961    -0.18470000
opls_916-31    C    0.51334004    0.11093975    0.28152908    0.18190000
opls_145-32    C    0.53205008    0.18965980    0.32677096    -0.14980000
opls_145-33    C    0.51410995    0.27090014    0.31892942    -0.18480000
opls_145-34    C    0.52132016    0.48355021    0.77142108    -0.18760000
opls_145-35    C    0.50029010    0.41592976    0.88195010    -0.18290000
opls_916-36    C    0.03543027    0.99781036    0.09856058    0.16070000
opls_145-37    C    0.00976995    0.05280973    0.22169103    -0.19130000
opls_145-38    C    0.97458993    0.05454014    0.12409034    -0.22110000
opls_916-39    C    0.90876998    0.08626000    0.78275028    0.16870000
opls_145-40    C    0.92632007    0.16392982    0.69621020    -0.14080000
opls_145-41    C    0.90726006    0.24325013    0.66100033    -0.13210000
opls_145-42    C    0.87048015    0.24698981    0.71354029    0.16860000
opls_145-43    C    0.85322996    0.17066985    0.81533035    -0.14080000
opls_145-44    C    0.87222000    0.09119966    0.84862044    -0.12600000
opls_145-45    C    0.82029007    0.50337029    0.56289991    -0.07460000
opls_700-46    C    0.80292009    0.58517000    0.51906976    0.05690000
opls_145-47    C    0.76546012    0.58754006    0.49913068    -0.11220000
opls_700-48    C    0.74512996    0.50999990    0.53187941    0.05480000
opls_145-49    C    0.76273021    0.42875009    0.57140983    -0.06380000
opls_700-50    C    0.80023999    0.42454987    0.58628918    0.04240000
opls_142-51    C    0.81739001    0.33721019    0.63268043    0.01380000
opls_142-52    C    0.70569008    0.51361982    0.55218078    0.01380000
opls_142-53    C    0.82278008    0.66990021    0.51130110    0.07360000
opls_916-54    C    0.91051004    0.91946032    0.74628068    0.17700000
opls_145-55    C    0.88639000    0.91224992    0.52837091    -0.21040000
opls_145-56    C    0.86812020    0.83246985    0.48008071    -0.15300000
opls_145-57    C    0.87413000    0.75810019    0.64767013    0.16620000
opls_145-58    C    0.89936999    0.76408995    0.85648072    -0.20290000
opls_145-59    C    0.91719007    0.84412026    0.90737991    -0.15300000
opls_145-60    C    0.34921007    0.40198969    0.42765943    0.17290000
opls_145-61    C    0.36520013    0.44622984    0.20777990    -0.19640000
opls_145-62    C    0.40116018    0.43174039    0.14503095    -0.18480000
opls_916-63    C    0.42212996    0.37314025    0.30083100    0.15810000
opls_145-64    C    0.40605999    0.32893013    0.52126023    -0.15300000
opls_145-65    C    0.36962995    0.34197025    0.58018003    -0.18500000
opls_916-66    C    0.47707011    0.27472018    0.26530047    0.15910000
opls_916-67    C    0.47934995    0.43149004    0.11301100    0.15750000
opls_145-68    C    0.54159021    0.80482973    0.77908979    -0.18480000
opls_145-69    C    0.52359007    0.88622976    0.76735039    -0.18460000
opls_916-70    C    0.48666023    0.88906025    0.71847092    0.18190000
opls_145-71    C    0.46795020    0.81034023    0.67323113    -0.14980000
opls_145-72    C    0.48589005    0.72909986    0.68107058    -0.18480000
opls_145-73    C    0.47868011    0.51644982    0.22858101    -0.18760000
opls_145-74    C    0.49971018    0.58407024    0.11804990    -0.18290000
opls_916-75    C    0.96457001    0.00218964    0.90143942    0.16070000
opls_145-76    C    0.99023005    0.94719030    0.77831105    -0.19140000
opls_145-77    C    0.02541007    0.94545986    0.87590966    -0.22110000
opls_750-78    N    0.14817010    0.67066021    0.33476033    -0.26130000
opls_750-79    N    0.14552005    0.32341029    0.38142018    -0.33460000
opls_750-80    N    0.31178014    0.41257013    0.48554021    -0.25320000
opls_239-81    N    0.54048018    0.64023992    0.76569088    -0.17520000
opls_237-82    N    0.46813010    0.97182979    0.71509985    -0.60870000
opls_239-83    N    0.07195002    0.99703016    0.19443097    -0.16840000
opls_750-84    N    0.85183018    0.32933979    0.66523967    -0.26120000
opls_750-85    N    0.85448023    0.67658971    0.61857982    -0.33460000
opls_750-86    N    0.68822013    0.58742987    0.51445979    -0.25340000
opls_239-87    N    0.45952009    0.35976008    0.23430912    -0.17520000
opls_237-88    N    0.53186990    0.02817021    0.28490015    -0.60860000
opls_239-89    N    0.92804998    0.00296987    0.80557111    -0.16840000
opls_146-90    H    0.04529018    0.83712014    0.34764910    0.21180000
opls_146-91    H    0.07909010    0.69798005    0.41173066    0.07710000
opls_146-92    H    0.17468013    0.82787050    0.12746974    0.21860000
opls_146-93    H    0.14159017    0.96664051    0.07332024    0.08410000
opls_144-94    H    0.19968006    0.72087994    0.36689064    0.08980000
opls_144-95    H    0.30842007    0.54609987    0.38686095    0.06510000
opls_144-96    H    0.19133998    0.27136978    0.55728007    0.02410000
opls_146-97    H    0.11822009    0.03124006    0.60326946    0.03620000
opls_146-98    H    0.15021016    0.17109957    0.68974083    0.21770000
opls_146-99    H    0.09596997    0.29278038    0.01336976    0.03620000
opls_146-100    H    0.06448990    0.15181004    0.92250080    0.21760000
opls_146-101    H    0.15080014    0.49881032    0.41983038    0.21330000
opls_146-102    H    0.24805015    0.34934986    0.52772960    0.03480000
opls_146-103    H    0.25293013    0.63129989    0.40250030    0.09780000
opls_146-104    H    0.65043021    0.51052976    0.92188030    0.03960000
opls_146-105    H    0.58746024    0.53494004    0.02971080    0.10240000
opls_146-106    H    0.57822005    0.71532022    0.35267968    0.03780000
opls_146-107    H    0.64264021    0.69328012    0.25208063    0.10280000
opls_146-108    H    0.43017990    0.19611013    0.17141025    0.21180000
opls_146-109    H    0.46176008    0.05264997    0.20158955    0.08370000
opls_146-110    H    0.56053999    0.18769985    0.36594949    0.21790000
opls_146-111    H    0.52928018    0.33121975    0.34991036    0.09490000
opls_146-112    H    0.53737999    0.47072990    0.59251077    0.21860000
opls_146-113    H    0.49990004    0.35056959    0.79168081    0.08760000
opls_909-114    H    0.44059006    0.97504039    0.68069995    0.25340000
opls_909-115    H    0.48231018    0.03109031    0.73879937    0.24720000
opls_146-116    H    0.01700992    0.09319970    0.39533964    0.21770000
opls_146-117    H    0.95468012    0.09565024    0.22148073    0.05200000
opls_146-118    H    0.95471009    0.16287986    0.65235090    0.21180000
opls_146-119    H    0.92091018    0.30201995    0.58826934    0.07710000
opls_146-120    H    0.82532014    0.17212950    0.87253026    0.21860000
opls_146-121    H    0.85841011    0.03335949    0.92667976    0.08410000
opls_144-122    H    0.80031994    0.27912006    0.63310936    0.08980000
opls_144-123    H    0.69158020    0.45390017    0.61314113    0.06510000
opls_144-124    H    0.80866002    0.72863022    0.44271993    0.02410000
opls_146-125    H    0.88178019    0.96875994    0.39673054    0.03620000
opls_146-126    H    0.84979011    0.82890043    0.31025917    0.21760000
opls_146-127    H    0.90403003    0.70721962    0.98663024    0.03620000
opls_146-128    H    0.93551010    0.84819000    0.07750129    0.21770000
opls_146-129    H    0.84920014    0.50118968    0.58016962    0.21330000
opls_146-130    H    0.75195012    0.65065014    0.47227040    0.03480000
opls_146-131    H    0.74707015    0.36870011    0.59749970    0.09780000
opls_146-132    H    0.34957006    0.48947024    0.07811970    0.03960000
opls_146-133    H    0.41254003    0.46505996    0.97028920    0.10240000
opls_146-134    H    0.42177995    0.28467978    0.64732032    0.03780000
opls_146-135    H    0.35736007    0.30671988    0.74791937    0.10280000
opls_146-136    H    0.56982010    0.80388987    0.82858975    0.21180000
opls_146-137    H    0.53824019    0.94735003    0.79841045    0.08370000
opls_146-138    H    0.43946001    0.81230015    0.63405051    0.21790000
opls_146-139    H    0.47072009    0.66878025    0.65008964    0.09490000
opls_146-140    H    0.46262001    0.52927010    0.40748923    0.21860000
opls_146-141    H    0.50010023    0.64943041    0.20831919    0.08760000
opls_909-142    H    0.55940994    0.02495961    0.31930005    0.25340000
opls_909-143    H    0.51769009    0.96890969    0.26120063    0.24720000
opls_146-144    H    0.98299008    0.90680030    0.60466036    0.21770000
opls_146-145    H    0.04532015    0.90434976    0.77851927    0.05200000
