#======================================================================
# Crystal Data Generated By AuToFF
#----------------------------------------------------------------------

data_AuToFF_phase_1

_cell_length_a                         41.9362
_cell_length_b                         37.1600
_cell_length_c                         3.6606
_cell_angle_alpha                      90.00
_cell_angle_beta                       88.18
_cell_angle_gamma                      90.00
_symmetry_space_group_name_H-M_alt     'P 1'
_symmetry_space_group_IT_number        1

loop_
_space_group_symop_operation_xyz
   'x, y, z'

loop_
   _atom_site_label
   _atom_site_type_symbol
   _atom_site_fract_x
   _atom_site_fract_y
   _atom_site_fract_z
   _atom_site_charge
opls_700-0    C    0.52814003    0.57681997    0.38952921    0.03140000
opls_700-1    C    0.52772016    0.53855005    0.36830885    0.03490000
opls_145-2    C    0.55336005    0.51837002    0.20291903    -0.12310000
opls_700-3    C    0.55682998    0.59883988    0.31256030    0.07150000
opls_145-4    C    0.55433002    0.63367008    0.15969115    -0.12680000
opls_145-5    C    0.58032000    0.65660011    0.12449060    -0.12580000
opls_700-6    C    0.61062006    0.64544995    0.24010933    0.10210000
opls_145-7    C    0.61340003    0.61023009    0.38266074    -0.12600000
opls_145-8    C    0.58729015    0.58752987    0.41852819    -0.12490000
opls_142-9    C    0.63892004    0.66750000    0.24522856    -0.14510000
opls_700-10    C    0.64460006    0.70275000    0.15348958    0.00150000
opls_700-11    C    0.67582013    0.71902987    0.22428972    0.02840000
opls_523-12    C    0.67902999    0.75550996    0.31930851    -0.12400000
opls_522-13    C    0.70850016    0.76812998    0.42559071    -0.16140000
opls_521-14    C    0.73435997    0.74413994    0.43467031    0.17360000
opls_521-15    C    0.70380001    0.69800996    0.21587974    0.04730000
opls_423-16    C    0.62100009    0.72605005    0.00889101    0.24130000
opls_700-17    C    0.02814003    0.07681997    0.38952921    0.03140000
opls_700-18    C    0.02772016    0.03855005    0.36830885    0.03490000
opls_145-19    C    0.05336005    0.01837002    0.20291903    -0.12310000
opls_700-20    C    0.05682998    0.09883988    0.31256030    0.07160000
opls_145-21    C    0.05433002    0.13367008    0.15969115    -0.12680000
opls_145-22    C    0.08032000    0.15660011    0.12449060    -0.12580000
opls_700-23    C    0.11062006    0.14544995    0.24010933    0.10190000
opls_145-24    C    0.11340003    0.11023009    0.38266074    -0.12590000
opls_145-25    C    0.08729015    0.08752987    0.41852819    -0.12490000
opls_142-26    C    0.13892004    0.16750000    0.24522856    -0.14510000
opls_700-27    C    0.14460006    0.20275000    0.15348958    0.00150000
opls_700-28    C    0.17582013    0.21902987    0.22428972    0.02840000
opls_523-29    C    0.17902999    0.25550996    0.31930851    -0.12400000
opls_522-30    C    0.20850016    0.26812998    0.42559071    -0.16140000
opls_521-31    C    0.23435997    0.24413994    0.43467031    0.17360000
opls_521-32    C    0.20380001    0.19800996    0.21587974    0.04740000
opls_423-33    C    0.12100009    0.22605005    0.00889101    0.24130000
opls_700-34    C    0.47185998    0.57681997    0.61046806    0.03140000
opls_700-35    C    0.47228008    0.53855005    0.63168842    0.03490000
opls_145-36    C    0.44664019    0.51837002    0.79707824    -0.12310000
opls_700-37    C    0.44317002    0.59883988    0.68743970    0.07150000
opls_145-38    C    0.44566998    0.63367008    0.84030885    -0.12680000
opls_145-39    C    0.41968000    0.65660011    0.87550940    -0.12570000
opls_700-40    C    0.38938019    0.64544995    0.75988794    0.10190000
opls_145-41    C    0.38659997    0.61023009    0.61733926    -0.12600000
opls_145-42    C    0.41271009    0.58752987    0.58146908    -0.12490000
opls_142-43    C    0.36107997    0.66750000    0.75476871    -0.14510000
opls_700-44    C    0.35540019    0.70275000    0.84650769    0.00150000
opls_700-45    C    0.32418011    0.71902987    0.77571028    0.02840000
opls_523-46    C    0.32097002    0.75550996    0.68068876    -0.12400000
opls_522-47    C    0.29150008    0.76812998    0.57440929    -0.16140000
opls_521-48    C    0.26564003    0.74413994    0.56532969    0.17360000
opls_521-49    C    0.29619999    0.69800996    0.78412026    0.04730000
opls_423-50    C    0.37900015    0.72605005    0.99110899    0.24130000
opls_700-51    C    0.97185998    0.07681997    0.61046806    0.03140000
opls_700-52    C    0.97228008    0.03855005    0.63168842    0.03490000
opls_145-53    C    0.94664019    0.01837002    0.79707824    -0.12310000
opls_700-54    C    0.94317002    0.09883988    0.68743970    0.07150000
opls_145-55    C    0.94566998    0.13367008    0.84030885    -0.12680000
opls_145-56    C    0.91968000    0.15660011    0.87550940    -0.12580000
opls_700-57    C    0.88938019    0.14544995    0.75988794    0.10190000
opls_145-58    C    0.88659997    0.11023009    0.61733926    -0.12600000
opls_145-59    C    0.91271009    0.08752987    0.58146908    -0.12490000
opls_142-60    C    0.86107997    0.16750000    0.75476871    -0.14510000
opls_700-61    C    0.85540019    0.20275000    0.84650769    0.00150000
opls_700-62    C    0.82418011    0.21902987    0.77571028    0.02840000
opls_523-63    C    0.82097002    0.25550996    0.68068876    -0.12400000
opls_522-64    C    0.79150008    0.26812998    0.57440929    -0.16140000
opls_521-65    C    0.76564003    0.24413994    0.56532969    0.17360000
opls_521-66    C    0.79619999    0.19800996    0.78412026    0.04730000
opls_423-67    C    0.87900015    0.22605005    0.99110899    0.24130000
opls_700-68    C    0.47185998    0.42318003    0.61046806    0.03140000
opls_700-69    C    0.47228008    0.46144995    0.63168842    0.03490000
opls_145-70    C    0.44664019    0.48162998    0.79707824    -0.12310000
opls_700-71    C    0.44317002    0.40116012    0.68743970    0.07160000
opls_145-72    C    0.44566998    0.36632992    0.84030885    -0.12680000
opls_145-73    C    0.41968000    0.34339989    0.87550940    -0.12580000
opls_700-74    C    0.38938019    0.35455005    0.75988794    0.10190000
opls_145-75    C    0.38659997    0.38976991    0.61733926    -0.12600000
opls_145-76    C    0.41271009    0.41247013    0.58146908    -0.12490000
opls_142-77    C    0.36107997    0.33250000    0.75476871    -0.14510000
opls_700-78    C    0.35540019    0.29725000    0.84650769    0.00150000
opls_700-79    C    0.32418011    0.28097013    0.77571028    0.02840000
opls_523-80    C    0.32097002    0.24449004    0.68068876    -0.12400000
opls_522-81    C    0.29150008    0.23187002    0.57440929    -0.16140000
opls_521-82    C    0.26564003    0.25586006    0.56532969    0.17360000
opls_521-83    C    0.29619999    0.30199004    0.78412026    0.04730000
opls_423-84    C    0.37900015    0.27394995    0.99110899    0.24130000
opls_700-85    C    0.97185998    0.92318003    0.61046806    0.03140000
opls_700-86    C    0.97228008    0.96144995    0.63168842    0.03490000
opls_145-87    C    0.94664019    0.98162998    0.79707824    -0.12310000
opls_700-88    C    0.94317002    0.90116012    0.68743970    0.07150000
opls_145-89    C    0.94566998    0.86632992    0.84030885    -0.12680000
opls_145-90    C    0.91968000    0.84339989    0.87550940    -0.12580000
opls_700-91    C    0.88938019    0.85455005    0.75988794    0.10190000
opls_145-92    C    0.88659997    0.88976991    0.61733926    -0.12600000
opls_145-93    C    0.91271009    0.91247013    0.58146908    -0.12490000
opls_142-94    C    0.86107997    0.83250000    0.75476871    -0.14510000
opls_700-95    C    0.85540019    0.79725000    0.84650769    0.00150000
opls_700-96    C    0.82418011    0.78097013    0.77571028    0.02840000
opls_523-97    C    0.82097002    0.74449004    0.68068876    -0.12400000
opls_522-98    C    0.79150008    0.73187002    0.57440929    -0.16140000
opls_521-99    C    0.76564003    0.75586006    0.56532969    0.17360000
opls_521-100    C    0.79619999    0.80199004    0.78412026    0.04730000
opls_423-101    C    0.87900015    0.77394995    0.99110899    0.24140000
opls_700-102    C    0.52814003    0.42318003    0.38952921    0.03140000
opls_700-103    C    0.52772016    0.46144995    0.36830885    0.03490000
opls_145-104    C    0.55336005    0.48162998    0.20291903    -0.12310000
opls_700-105    C    0.55682998    0.40116012    0.31256030    0.07150000
opls_145-106    C    0.55433002    0.36632992    0.15969115    -0.12680000
opls_145-107    C    0.58032000    0.34339989    0.12449060    -0.12580000
opls_700-108    C    0.61062006    0.35455005    0.24010933    0.10190000
opls_145-109    C    0.61340003    0.38976991    0.38266074    -0.12600000
opls_145-110    C    0.58729015    0.41247013    0.41852819    -0.12480000
opls_142-111    C    0.63892004    0.33250000    0.24522856    -0.14510000
opls_700-112    C    0.64460006    0.29725000    0.15348958    0.00150000
opls_700-113    C    0.67582013    0.28097013    0.22428972    0.02840000
opls_523-114    C    0.67902999    0.24449004    0.31930851    -0.12390000
opls_522-115    C    0.70850016    0.23187002    0.42559071    -0.16140000
opls_521-116    C    0.73435997    0.25586006    0.43467031    0.17370000
opls_521-117    C    0.70380001    0.30199004    0.21587974    0.04730000
opls_423-118    C    0.62100009    0.27394995    0.00889101    0.24130000
opls_700-119    C    0.02814003    0.92318003    0.38952921    0.03140000
opls_700-120    C    0.02772016    0.96144995    0.36830885    0.03490000
opls_145-121    C    0.05336005    0.98162998    0.20291903    -0.12310000
opls_700-122    C    0.05682998    0.90116012    0.31256030    0.07160000
opls_145-123    C    0.05433002    0.86632992    0.15969115    -0.12670000
opls_145-124    C    0.08032000    0.84339989    0.12449060    -0.12580000
opls_700-125    C    0.11062006    0.85455005    0.24010933    0.10190000
opls_145-126    C    0.11340003    0.88976991    0.38266074    -0.12600000
opls_145-127    C    0.08729015    0.91247013    0.41852819    -0.12490000
opls_142-128    C    0.13892004    0.83250000    0.24522856    -0.14510000
opls_700-129    C    0.14460006    0.79725000    0.15348958    0.00150000
opls_700-130    C    0.17582013    0.78097013    0.22428972    0.02840000
opls_523-131    C    0.17902999    0.74449004    0.31930851    -0.12400000
opls_522-132    C    0.20850016    0.73187002    0.42559071    -0.16140000
opls_521-133    C    0.23435997    0.75586006    0.43467031    0.17360000
opls_521-134    C    0.20380001    0.80199004    0.21587974    0.04730000
opls_423-135    C    0.12100009    0.77394995    0.00889101    0.24130000
opls_145-136    C    0.50000012    0.59454010    0.49999863    -0.16420000
opls_700-137    C    0.50000012    0.51931997    0.49999863    0.00060000
opls_145-138    C    0.00000012    0.09454010    0.49999863    -0.16410000
opls_700-139    C    0.00000012    0.01931997    0.49999863    0.00060000
opls_145-140    C    0.50000012    0.40545990    0.49999863    -0.16410000
opls_700-141    C    0.50000012    0.48068003    0.49999863    0.00060000
opls_145-142    C    0.00000012    0.90545990    0.49999863    -0.16420000
opls_700-143    C    0.00000012    0.98068003    0.49999863    0.00060000
opls_520-144    N    0.73206000    0.70966012    0.32078989    -0.25600000
opls_753-145    N    0.60278016    0.74635011    0.88490878    -0.34900000
opls_520-146    N    0.23206000    0.20966012    0.32078989    -0.25610000
opls_753-147    N    0.10278016    0.24635011    0.88490878    -0.34890000
opls_520-148    N    0.26794000    0.70966012    0.67921011    -0.25610000
opls_753-149    N    0.39722009    0.74635011    0.11508849    -0.34510000
opls_520-150    N    0.76794000    0.20966012    0.67921011    -0.25600000
opls_753-151    N    0.89722009    0.24635011    0.11508849    -0.34500000
opls_520-152    N    0.26794000    0.29033988    0.67921011    -0.25610000
opls_753-153    N    0.39722009    0.25364989    0.11508849    -0.34500000
opls_520-154    N    0.76794000    0.79033988    0.67921011    -0.25600000
opls_753-155    N    0.89722009    0.75364989    0.11508849    -0.34510000
opls_520-156    N    0.73206000    0.29033988    0.32078989    -0.25610000
opls_753-157    N    0.60278016    0.25364989    0.88490878    -0.34910000
opls_520-158    N    0.23206000    0.79033988    0.32078989    -0.25610000
opls_753-159    N    0.10278016    0.75364989    0.88490878    -0.34910000
opls_146-160    H    0.57297993    0.53268003    0.06445097    0.11450000
opls_146-161    H    0.53134005    0.64300000    0.06434985    0.11100000
opls_146-162    H    0.57704992    0.68330005    0.00789067    0.11000000
opls_146-163    H    0.63651997    0.60119995    0.47851042    0.10630000
opls_146-164    H    0.59020003    0.56136006    0.54831022    0.11020000
opls_144-165    H    0.65917011    0.65388994    0.36701059    0.10260000
opls_526-166    H    0.65827998    0.77323009    0.32004920    0.11120000
opls_525-167    H    0.71207997    0.79598009    0.50769798    0.11050000
opls_524-168    H    0.70320004    0.67032992    0.11245917    0.07780000
opls_146-169    H    0.07297993    0.03268003    0.06445097    0.11450000
opls_146-170    H    0.03134005    0.14300000    0.06434985    0.11090000
opls_146-171    H    0.07704992    0.18330005    0.00789067    0.11000000
opls_146-172    H    0.13651997    0.10119995    0.47851042    0.10630000
opls_146-173    H    0.09020003    0.06136006    0.54831022    0.11020000
opls_144-174    H    0.15917011    0.15388994    0.36701059    0.10260000
opls_526-175    H    0.15827998    0.27323009    0.32004920    0.11120000
opls_525-176    H    0.21207997    0.29598009    0.50769798    0.11060000
opls_524-177    H    0.20320004    0.17032992    0.11245917    0.07790000
opls_146-178    H    0.42702007    0.53268003    0.93554903    0.11460000
opls_146-179    H    0.46866020    0.64300000    0.93564742    0.11090000
opls_146-180    H    0.42295008    0.68330005    0.99210933    0.11000000
opls_146-181    H    0.36348003    0.60119995    0.52148958    0.10640000
opls_146-182    H    0.40979997    0.56136006    0.45168978    0.11020000
opls_144-183    H    0.34083013    0.65388994    0.63298941    0.10270000
opls_526-184    H    0.34172002    0.77323009    0.67994807    0.11120000
opls_525-185    H    0.28792004    0.79598009    0.49229928    0.11050000
opls_524-186    H    0.29680021    0.67032992    0.88753809    0.07780000
opls_146-187    H    0.92702007    0.03268003    0.93554903    0.11450000
opls_146-188    H    0.96866020    0.14300000    0.93564742    0.11090000
opls_146-189    H    0.92295008    0.18330005    0.99210933    0.11000000
opls_146-190    H    0.86348003    0.10119995    0.52148958    0.10630000
opls_146-191    H    0.90979997    0.06136006    0.45168978    0.11030000
opls_144-192    H    0.84083013    0.15388994    0.63298941    0.10260000
opls_526-193    H    0.84172002    0.27323009    0.67994807    0.11120000
opls_525-194    H    0.78792004    0.29598009    0.49229928    0.11050000
opls_524-195    H    0.79680021    0.17032992    0.88753809    0.07780000
opls_146-196    H    0.42702007    0.46731997    0.93554903    0.11450000
opls_146-197    H    0.46866020    0.35700000    0.93564742    0.11090000
opls_146-198    H    0.42295008    0.31669995    0.99210933    0.11000000
opls_146-199    H    0.36348003    0.39880005    0.52148958    0.10630000
opls_146-200    H    0.40979997    0.43863994    0.45168978    0.11020000
opls_144-201    H    0.34083013    0.34611006    0.63298941    0.10270000
opls_526-202    H    0.34172002    0.22676991    0.67994807    0.11120000
opls_525-203    H    0.28792004    0.20401991    0.49229928    0.11050000
opls_524-204    H    0.29680021    0.32967008    0.88753809    0.07780000
opls_146-205    H    0.92702007    0.96731997    0.93554903    0.11450000
opls_146-206    H    0.96866020    0.85700000    0.93564742    0.11090000
opls_146-207    H    0.92295008    0.81669995    0.99210933    0.11010000
opls_146-208    H    0.86348003    0.89880005    0.52148958    0.10630000
opls_146-209    H    0.90979997    0.93863994    0.45168978    0.11020000
opls_144-210    H    0.84083013    0.84611006    0.63298941    0.10260000
opls_526-211    H    0.84172002    0.72676991    0.67994807    0.11120000
opls_525-212    H    0.78792004    0.70401991    0.49229928    0.11050000
opls_524-213    H    0.79680021    0.82967008    0.88753809    0.07780000
opls_146-214    H    0.57297993    0.46731997    0.06445097    0.11450000
opls_146-215    H    0.53134005    0.35700000    0.06434985    0.11090000
opls_146-216    H    0.57704992    0.31669995    0.00789067    0.11010000
opls_146-217    H    0.63651997    0.39880005    0.47851042    0.10630000
opls_146-218    H    0.59020003    0.43863994    0.54831022    0.11020000
opls_144-219    H    0.65917011    0.34611006    0.36701059    0.10260000
opls_526-220    H    0.65827998    0.22676991    0.32004920    0.11120000
opls_525-221    H    0.71207997    0.20401991    0.50769798    0.11060000
opls_524-222    H    0.70320004    0.32967008    0.11245917    0.07780000
opls_146-223    H    0.07297993    0.96731997    0.06445097    0.11450000
opls_146-224    H    0.03134005    0.85700000    0.06434985    0.11090000
opls_146-225    H    0.07704992    0.81669995    0.00789067    0.11000000
opls_146-226    H    0.13651997    0.89880005    0.47851042    0.10640000
opls_146-227    H    0.09020003    0.93863994    0.54831022    0.11020000
opls_144-228    H    0.15917011    0.84611006    0.36701059    0.10260000
opls_526-229    H    0.15827998    0.72676991    0.32004920    0.11120000
opls_525-230    H    0.21207997    0.70401991    0.50769798    0.11060000
opls_524-231    H    0.20320004    0.82967008    0.11245917    0.07780000
opls_146-232    H    0.50000012    0.62383988    0.49999863    0.11170000
opls_146-233    H    0.00000012    0.12383988    0.49999863    0.11170000
opls_146-234    H    0.50000012    0.37616012    0.49999863    0.11170000
opls_146-235    H    0.00000012    0.87616012    0.49999863    0.11170000
