#======================================================================
# Crystal Data Generated By AuToFF
#----------------------------------------------------------------------

data_AuToFF_phase_1

_cell_length_a                         15.6400
_cell_length_b                         15.6400
_cell_length_c                         3.4000
_cell_angle_alpha                      90.00
_cell_angle_beta                       90.00
_cell_angle_gamma                      120.00
_symmetry_space_group_name_H-M_alt     'P 1'
_symmetry_space_group_IT_number        1

loop_
_space_group_symop_operation_xyz
   'x, y, z'

loop_
   _atom_site_label
   _atom_site_type_symbol
   _atom_site_fract_x
   _atom_site_fract_y
   _atom_site_fract_z
   _atom_site_charge
opls_238-0    N    0.04989026    0.53719996    0.50000000    -0.02020000
opls_238-1    N    0.46280019    0.51268989    0.50000000    -0.02020000
opls_238-2    N    0.48731019    0.95011015    0.50000000    -0.02020000
opls_238-3    N    0.95010974    0.46280004    0.50000000    -0.02020000
opls_238-4    N    0.53719981    0.48731011    0.50000000    -0.02020000
opls_238-5    N    0.51268981    0.04988985    0.50000000    -0.02020000
opls_142-6    C    0.12714975    0.52091971    0.50000000    -0.07610000
opls_142-7    C    0.47907994    0.60623021    0.50000000    -0.07610000
opls_142-8    C    0.39377030    0.87285007    0.50000000    -0.07610000
opls_142-9    C    0.87284988    0.47907955    0.50000000    -0.07610000
opls_142-10    C    0.52092006    0.39376979    0.50000000    -0.07610000
opls_142-11    C    0.60622970    0.12714993    0.50000000    -0.07610000
opls_280-12    C    0.30098984    0.55969963    0.50000000    0.26060000
opls_280-13    C    0.44029950    0.74128954    0.50000000    0.26060000
opls_280-14    C    0.25871029    0.69901009    0.50000000    0.26060000
opls_280-15    C    0.69900979    0.44029963    0.50000000    0.26060000
opls_280-16    C    0.55970013    0.25870972    0.50000000    0.26060000
opls_280-17    C    0.74128971    0.30098991    0.50000000    0.26060000
opls_700-18    C    0.22770006    0.59362006    0.50000000    -0.14070000
opls_700-19    C    0.40637996    0.63407961    0.50000000    -0.14070000
opls_700-20    C    0.36591962    0.77229960    0.50000000    -0.14070000
opls_700-21    C    0.77229994    0.40637994    0.50000000    -0.14070000
opls_700-22    C    0.59361967    0.36591966    0.50000000    -0.14070000
opls_700-23    C    0.63408001    0.22769967    0.50000000    -0.14070000
opls_144-24    H    0.10988015    0.44390992    0.50000000    0.09180000
opls_144-25    H    0.55608972    0.66596971    0.50000000    0.09180000
opls_144-26    H    0.33402977    0.89011963    0.50000000    0.09180000
opls_144-27    H    0.89011985    0.55609008    0.50000000    0.09180000
opls_144-28    H    0.44391028    0.33403029    0.50000000    0.09180000
opls_144-29    H    0.66596986    0.10987963    0.50000000    0.09180000
opls_910-30    H    0.06966989    0.61141012    0.50000000    0.28930000
opls_910-31    H    0.38858984    0.45826024    0.50000000    0.28930000
opls_910-32    H    0.54173963    0.93032964    0.50000000    0.28930000
opls_910-33    H    0.93033011    0.38858988    0.50000000    0.28930000
opls_910-34    H    0.61141016    0.54173976    0.50000000    0.28930000
opls_910-35    H    0.45826000    0.06966963    0.50000000    0.28930000
opls_281-36    O    0.27475022    0.46913982    0.50000000    -0.40470000
opls_281-37    O    0.53086008    0.80561019    0.50000000    -0.40470000
opls_281-38    O    0.19438970    0.72524999    0.50000000    -0.40470000
opls_281-39    O    0.72524978    0.53086018    0.50000000    -0.40470000
opls_281-40    O    0.46913992    0.19438981    0.50000000    -0.40470000
opls_281-41    O    0.80561030    0.27475001    0.50000000    -0.40470000
