#======================================================================
# Crystal Data Generated By AuToFF
#----------------------------------------------------------------------

data_AuToFF_phase_1

_cell_length_a                         26.2260
_cell_length_b                         26.2260
_cell_length_c                         7.5743
_cell_angle_alpha                      90.00
_cell_angle_beta                       90.00
_cell_angle_gamma                      90.00
_symmetry_space_group_name_H-M_alt     'P 1'
_symmetry_space_group_IT_number        1

loop_
_space_group_symop_operation_xyz
   'x, y, z'

loop_
   _atom_site_label
   _atom_site_type_symbol
   _atom_site_fract_x
   _atom_site_fract_y
   _atom_site_fract_z
   _atom_site_charge
opls_700-0    C    0.45336002    0.24464997    0.99860053    0.03750000
opls_145-1    C    0.41939983    0.20495996    0.99540024    -0.23370000
opls_145-2    C    0.37901014    0.20238999    0.11300054    -0.23620000
opls_145-3    C    0.37270991    0.23916991    0.23879963    0.18230000
opls_145-4    C    0.44659003    0.28159994    0.12839998    -0.23120000
opls_145-5    C    0.40699992    0.27990010    0.24600029    -0.23360000
opls_145-6    C    0.29010981    0.25132998    0.63310009    0.05080000
opls_142-7    C    0.33309006    0.25191985    0.50499980    0.08450000
opls_145-8    C    0.29867002    0.26500991    0.80440041    -0.23370000
opls_145-9    C    0.24128994    0.23691985    0.57499967    -0.22670000
opls_700-10    C    0.95336002    0.74464997    0.49860053    0.03750000
opls_145-11    C    0.91939983    0.70495996    0.49540024    -0.23370000
opls_145-12    C    0.87901014    0.70238999    0.61300054    -0.23620000
opls_145-13    C    0.87270991    0.73916991    0.73879963    0.18230000
opls_145-14    C    0.94659003    0.78159994    0.62839998    -0.23120000
opls_145-15    C    0.90699992    0.77990010    0.74600029    -0.23370000
opls_145-16    C    0.79010981    0.75132998    0.13310009    0.05080000
opls_142-17    C    0.83309006    0.75191985    0.00499980    0.08450000
opls_145-18    C    0.79867002    0.76500991    0.30440041    -0.23370000
opls_145-19    C    0.74128994    0.73691985    0.07499967    -0.22670000
opls_700-20    C    0.04663998    0.75535003    0.49860053    0.03750000
opls_145-21    C    0.08060017    0.79504004    0.49540024    -0.23370000
opls_145-22    C    0.12098986    0.79761001    0.61300054    -0.23610000
opls_145-23    C    0.12729009    0.76083009    0.73879963    0.18230000
opls_145-24    C    0.05340997    0.71840006    0.62839998    -0.23120000
opls_145-25    C    0.09300008    0.72009990    0.74600029    -0.23370000
opls_145-26    C    0.20989019    0.74867002    0.13310009    0.05080000
opls_142-27    C    0.16690994    0.74808015    0.00499980    0.08460000
opls_145-28    C    0.20132998    0.73499009    0.30440041    -0.23370000
opls_145-29    C    0.25871006    0.76308015    0.07499967    -0.22670000
opls_700-30    C    0.54663998    0.25535003    0.99860053    0.03750000
opls_145-31    C    0.58060017    0.29504004    0.99540024    -0.23370000
opls_145-32    C    0.62098986    0.29761001    0.11300054    -0.23620000
opls_145-33    C    0.62729009    0.26083009    0.23879963    0.18230000
opls_145-34    C    0.55340997    0.21840006    0.12839998    -0.23120000
opls_145-35    C    0.59300008    0.22009990    0.24600029    -0.23370000
opls_145-36    C    0.70989019    0.24867002    0.63310009    0.05080000
opls_142-37    C    0.66690994    0.24808015    0.50499980    0.08450000
opls_145-38    C    0.70132998    0.23499009    0.80440041    -0.23370000
opls_145-39    C    0.75871006    0.26308015    0.57499967    -0.22670000
opls_700-40    C    0.50535003    0.70336002    0.24859987    0.03750000
opls_145-41    C    0.54504004    0.66939983    0.24539957    -0.23370000
opls_145-42    C    0.54761001    0.62901014    0.36299988    -0.23620000
opls_145-43    C    0.51083009    0.62270991    0.48880029    0.18230000
opls_145-44    C    0.46840006    0.69659003    0.37840064    -0.23120000
opls_145-45    C    0.47009990    0.65699992    0.49599963    -0.23370000
opls_145-46    C    0.49867002    0.54010981    0.88309943    0.05080000
opls_142-47    C    0.49808015    0.58309006    0.75500046    0.08450000
opls_145-48    C    0.48499009    0.54867002    0.05439975    -0.23370000
opls_145-49    C    0.51308015    0.49128994    0.82500033    -0.22670000
opls_700-50    C    0.00535003    0.20336002    0.74859987    0.03750000
opls_145-51    C    0.04504004    0.16939983    0.74539957    -0.23370000
opls_145-52    C    0.04761001    0.12901014    0.86299988    -0.23620000
opls_145-53    C    0.01083009    0.12270991    0.98880029    0.18230000
opls_145-54    C    0.96840006    0.19659003    0.87840064    -0.23120000
opls_145-55    C    0.97009990    0.15699992    0.99599963    -0.23370000
opls_145-56    C    0.99867002    0.04010981    0.38309943    0.05080000
opls_142-57    C    0.99808015    0.08309006    0.25500046    0.08450000
opls_145-58    C    0.98499009    0.04867002    0.55439975    -0.23370000
opls_145-59    C    0.01308015    0.99128994    0.32500033    -0.22670000
opls_700-60    C    0.99464997    0.29663998    0.74859987    0.03750000
opls_145-61    C    0.95495996    0.33060017    0.74539957    -0.23370000
opls_145-62    C    0.95238999    0.37098986    0.86299988    -0.23620000
opls_145-63    C    0.98916991    0.37729009    0.98880029    0.18230000
opls_145-64    C    0.03159994    0.30340997    0.87840064    -0.23120000
opls_145-65    C    0.02990010    0.34300008    0.99599963    -0.23370000
opls_145-66    C    0.00132998    0.45989019    0.38309943    0.05080000
opls_142-67    C    0.00191985    0.41690994    0.25500046    0.08450000
opls_145-68    C    0.01500991    0.45132998    0.55439975    -0.23370000
opls_145-69    C    0.98691985    0.50871006    0.32500033    -0.22670000
opls_700-70    C    0.49464997    0.79663998    0.24859987    0.03750000
opls_145-71    C    0.45495996    0.83060017    0.24539957    -0.23370000
opls_145-72    C    0.45238999    0.87098986    0.36299988    -0.23620000
opls_145-73    C    0.48916991    0.87729009    0.48880029    0.18230000
opls_145-74    C    0.53159994    0.80340997    0.37840064    -0.23120000
opls_145-75    C    0.52990010    0.84300008    0.49599963    -0.23370000
opls_145-76    C    0.50132998    0.95989019    0.88309943    0.05080000
opls_142-77    C    0.50191985    0.91690994    0.75500046    0.08450000
opls_145-78    C    0.51500991    0.95132998    0.05439975    -0.23370000
opls_145-79    C    0.48691985    0.00871006    0.82500033    -0.22670000
opls_700-80    C    0.54663998    0.75535003    0.00139947    0.03750000
opls_145-81    C    0.58060017    0.79504004    0.00459976    -0.23370000
opls_145-82    C    0.62098986    0.79761001    0.88699946    -0.23620000
opls_145-83    C    0.62729009    0.76083009    0.76120037    0.18230000
opls_145-84    C    0.55340997    0.71840006    0.87160002    -0.23120000
opls_145-85    C    0.59300008    0.72009990    0.75399971    -0.23370000
opls_145-86    C    0.70989019    0.74867002    0.36689991    0.05080000
opls_142-87    C    0.66690994    0.74808015    0.49500020    0.08450000
opls_145-88    C    0.70132998    0.73499009    0.19559959    -0.23370000
opls_145-89    C    0.75871006    0.76308015    0.42500033    -0.22670000
opls_700-90    C    0.04663998    0.25535003    0.50139947    0.03750000
opls_145-91    C    0.08060017    0.29504004    0.50459976    -0.23370000
opls_145-92    C    0.12098986    0.29761001    0.38699946    -0.23620000
opls_145-93    C    0.12729009    0.26083009    0.26120037    0.18230000
opls_145-94    C    0.05340997    0.21840006    0.37160002    -0.23120000
opls_145-95    C    0.09300008    0.22009990    0.25399971    -0.23370000
opls_145-96    C    0.20989019    0.24867002    0.86689991    0.05080000
opls_142-97    C    0.16690994    0.24808015    0.99500020    0.08450000
opls_145-98    C    0.20132998    0.23499009    0.69559959    -0.23370000
opls_145-99    C    0.25871006    0.26308015    0.92500033    -0.22670000
opls_700-100    C    0.95336002    0.24464997    0.50139947    0.03750000
opls_145-101    C    0.91939983    0.20495996    0.50459976    -0.23370000
opls_145-102    C    0.87901014    0.20238999    0.38699946    -0.23620000
opls_145-103    C    0.87270991    0.23916991    0.26120037    0.18230000
opls_145-104    C    0.94659003    0.28159994    0.37160002    -0.23120000
opls_145-105    C    0.90699992    0.27990010    0.25399971    -0.23370000
opls_145-106    C    0.79010981    0.25132998    0.86689991    0.05080000
opls_142-107    C    0.83309006    0.25191985    0.99500020    0.08450000
opls_145-108    C    0.79867002    0.26500991    0.69559959    -0.23370000
opls_145-109    C    0.74128994    0.23691985    0.92500033    -0.22670000
opls_700-110    C    0.45336002    0.74464997    0.00139947    0.03750000
opls_145-111    C    0.41939983    0.70495996    0.00459976    -0.23370000
opls_145-112    C    0.37901014    0.70238999    0.88699946    -0.23620000
opls_145-113    C    0.37270991    0.73916991    0.76120037    0.18230000
opls_145-114    C    0.44659003    0.78159994    0.87160002    -0.23120000
opls_145-115    C    0.40699992    0.77990010    0.75399971    -0.23370000
opls_145-116    C    0.29010981    0.75132998    0.36689991    0.05080000
opls_142-117    C    0.33309006    0.75191985    0.49500020    0.08450000
opls_145-118    C    0.29867002    0.76500991    0.19559959    -0.23370000
opls_145-119    C    0.24128994    0.73691985    0.42500033    -0.22660000
opls_700-120    C    0.49464997    0.29663998    0.75140013    0.03750000
opls_145-121    C    0.45495996    0.33060017    0.75460043    -0.23370000
opls_145-122    C    0.45238999    0.37098986    0.63700012    -0.23620000
opls_145-123    C    0.48916991    0.37729009    0.51119971    0.18230000
opls_145-124    C    0.53159994    0.30340997    0.62159936    -0.23120000
opls_145-125    C    0.52990010    0.34300008    0.50400037    -0.23370000
opls_145-126    C    0.50132998    0.45989019    0.11690057    0.05080000
opls_142-127    C    0.50191985    0.41690994    0.24499954    0.08450000
opls_145-128    C    0.51500991    0.45132998    0.94560025    -0.23370000
opls_145-129    C    0.48691985    0.50871006    0.17499967    -0.22670000
opls_700-130    C    0.99464997    0.79663998    0.25140013    0.03750000
opls_145-131    C    0.95495996    0.83060017    0.25460043    -0.23370000
opls_145-132    C    0.95238999    0.87098986    0.13700012    -0.23610000
opls_145-133    C    0.98916991    0.87729009    0.01119971    0.18230000
opls_145-134    C    0.03159994    0.80340997    0.12159936    -0.23120000
opls_145-135    C    0.02990010    0.84300008    0.00400037    -0.23360000
opls_145-136    C    0.00132998    0.95989019    0.61690057    0.05080000
opls_142-137    C    0.00191985    0.91690994    0.74499954    0.08450000
opls_145-138    C    0.01500991    0.95132998    0.44560025    -0.23370000
opls_145-139    C    0.98691985    0.00871006    0.67499967    -0.22670000
opls_700-140    C    0.00535003    0.70336002    0.25140013    0.03750000
opls_145-141    C    0.04504004    0.66939983    0.25460043    -0.23370000
opls_145-142    C    0.04761001    0.62901014    0.13700012    -0.23620000
opls_145-143    C    0.01083009    0.62270991    0.01119971    0.18230000
opls_145-144    C    0.96840006    0.69659003    0.12159936    -0.23120000
opls_145-145    C    0.97009990    0.65699992    0.00400037    -0.23370000
opls_145-146    C    0.99867002    0.54010981    0.61690057    0.05080000
opls_142-147    C    0.99808015    0.58309006    0.74499954    0.08450000
opls_145-148    C    0.98499009    0.54867002    0.44560025    -0.23370000
opls_145-149    C    0.01308015    0.49128994    0.67499967    -0.22670000
opls_700-150    C    0.50535003    0.20336002    0.75140013    0.03750000
opls_145-151    C    0.54504004    0.16939983    0.75460043    -0.23370000
opls_145-152    C    0.54761001    0.12901014    0.63700012    -0.23620000
opls_145-153    C    0.51083009    0.12270991    0.51119971    0.18230000
opls_145-154    C    0.46840006    0.19659003    0.62159936    -0.23120000
opls_145-155    C    0.47009990    0.15699992    0.50400037    -0.23370000
opls_145-156    C    0.49867002    0.04010981    0.11690057    0.05080000
opls_142-157    C    0.49808015    0.08309006    0.24499954    0.08450000
opls_145-158    C    0.48499009    0.04867002    0.94560025    -0.23370000
opls_145-159    C    0.51308015    0.99128994    0.17499967    -0.22670000
opls_701-160    C    0.50000000    0.25000000    0.87499967    0.00950000
opls_701-161    C    0.00000000    0.75000000    0.37499967    0.00950000
opls_701-162    C    0.50000000    0.75000000    0.12500033    0.00950000
opls_701-163    C    0.00000000    0.25000000    0.62500033    0.00950000
opls_750-164    N    0.32911004    0.23527987    0.35100009    -0.31060000
opls_750-165    N    0.82911004    0.73527987    0.85100009    -0.31060000
opls_750-166    N    0.17088996    0.76472013    0.85100009    -0.31050000
opls_750-167    N    0.67088996    0.26472013    0.35100009    -0.31060000
opls_750-168    N    0.51472013    0.57911004    0.60099943    -0.31060000
opls_750-169    N    0.01472013    0.07911004    0.10099943    -0.31050000
opls_750-170    N    0.98527987    0.42088996    0.10099943    -0.31050000
opls_750-171    N    0.48527987    0.92088996    0.60099943    -0.31060000
opls_750-172    N    0.67088996    0.76472013    0.64899991    -0.31060000
opls_750-173    N    0.17088996    0.26472013    0.14899991    -0.31050000
opls_750-174    N    0.82911004    0.23527987    0.14899991    -0.31060000
opls_750-175    N    0.32911004    0.73527987    0.64899991    -0.31060000
opls_750-176    N    0.48527987    0.42088996    0.39900057    -0.31060000
opls_750-177    N    0.98527987    0.92088996    0.89900057    -0.31060000
opls_750-178    N    0.01472013    0.57911004    0.89900057    -0.31060000
opls_750-179    N    0.51472013    0.07911004    0.39900057    -0.31050000
opls_146-180    H    0.42349996    0.17920003    0.91229949    0.20840000
opls_146-181    H    0.35600015    0.17539998    0.10619991    0.20840000
opls_146-182    H    0.46979982    0.30840006    0.13550031    0.20840000
opls_146-183    H    0.40300008    0.30549989    0.32960010    0.20840000
opls_144-184    H    0.36429993    0.26530008    0.54100049    0.09780000
opls_146-185    H    0.33089987    0.27549989    0.84020041    0.20840000
opls_146-186    H    0.23579997    0.22880005    0.45700065    0.20840000
opls_146-187    H    0.92349996    0.67920003    0.41229949    0.20840000
opls_146-188    H    0.85600015    0.67539998    0.60619991    0.20840000
opls_146-189    H    0.96979982    0.80840006    0.63550031    0.20840000
opls_146-190    H    0.90300008    0.80549989    0.82960010    0.20840000
opls_144-191    H    0.86429993    0.76530008    0.04100049    0.09790000
opls_146-192    H    0.83089987    0.77549989    0.34020041    0.20840000
opls_146-193    H    0.73579997    0.72880005    0.95700065    0.20840000
opls_146-194    H    0.07650004    0.82079997    0.41229949    0.20840000
opls_146-195    H    0.14399985    0.82460002    0.60619991    0.20840000
opls_146-196    H    0.03020018    0.69159994    0.63550031    0.20840000
opls_146-197    H    0.09699992    0.69450011    0.82960010    0.20840000
opls_144-198    H    0.13570007    0.73469992    0.04100049    0.09780000
opls_146-199    H    0.16910013    0.72450011    0.34020041    0.20840000
opls_146-200    H    0.26420003    0.77119995    0.95700065    0.20840000
opls_146-201    H    0.57650004    0.32079997    0.91229949    0.20840000
opls_146-202    H    0.64399985    0.32460002    0.10619991    0.20840000
opls_146-203    H    0.53020018    0.19159994    0.13550031    0.20840000
opls_146-204    H    0.59699992    0.19450011    0.32960010    0.20840000
opls_144-205    H    0.63570007    0.23469992    0.54100049    0.09780000
opls_146-206    H    0.66910013    0.22450011    0.84020041    0.20840000
opls_146-207    H    0.76420003    0.27119995    0.45700065    0.20840000
opls_146-208    H    0.57079997    0.67349996    0.16230015    0.20840000
opls_146-209    H    0.57460002    0.60600015    0.35620057    0.20840000
opls_146-210    H    0.44159994    0.71979982    0.38549965    0.20840000
opls_146-211    H    0.44450011    0.65300008    0.57959943    0.20850000
opls_144-212    H    0.48469992    0.61429993    0.79099983    0.09780000
opls_146-213    H    0.47450011    0.58089987    0.09019975    0.20840000
opls_146-214    H    0.52119995    0.48579997    0.70699999    0.20840000
opls_146-215    H    0.07079997    0.17349996    0.66230015    0.20840000
opls_146-216    H    0.07460002    0.10600015    0.85620057    0.20840000
opls_146-217    H    0.94159994    0.21979982    0.88549965    0.20840000
opls_146-218    H    0.94450011    0.15300008    0.07959943    0.20840000
opls_144-219    H    0.98469992    0.11429993    0.29099983    0.09780000
opls_146-220    H    0.97450011    0.08089987    0.59019975    0.20840000
opls_146-221    H    0.02119995    0.98579997    0.20699999    0.20840000
opls_146-222    H    0.92920003    0.32650004    0.66230015    0.20840000
opls_146-223    H    0.92539998    0.39399985    0.85620057    0.20840000
opls_146-224    H    0.05840006    0.28020018    0.88549965    0.20840000
opls_146-225    H    0.05549989    0.34699992    0.07959943    0.20840000
opls_144-226    H    0.01530008    0.38570007    0.29099983    0.09780000
opls_146-227    H    0.02549989    0.41910013    0.59019975    0.20840000
opls_146-228    H    0.97880005    0.51420003    0.20699999    0.20840000
opls_146-229    H    0.42920003    0.82650004    0.16230015    0.20850000
opls_146-230    H    0.42539998    0.89399985    0.35620057    0.20840000
opls_146-231    H    0.55840006    0.78020018    0.38549965    0.20840000
opls_146-232    H    0.55549989    0.84699992    0.57959943    0.20850000
opls_144-233    H    0.51530008    0.88570007    0.79099983    0.09780000
opls_146-234    H    0.52549989    0.91910013    0.09019975    0.20840000
opls_146-235    H    0.47880005    0.01420003    0.70699999    0.20840000
opls_146-236    H    0.57650004    0.82079997    0.08770051    0.20840000
opls_146-237    H    0.64399985    0.82460002    0.89380009    0.20840000
opls_146-238    H    0.53020018    0.69159994    0.86449969    0.20840000
opls_146-239    H    0.59699992    0.69450011    0.67039990    0.20840000
opls_144-240    H    0.63570007    0.73469992    0.45899951    0.09780000
opls_146-241    H    0.66910013    0.72450011    0.15979959    0.20840000
opls_146-242    H    0.76420003    0.77119995    0.54299935    0.20840000
opls_146-243    H    0.07650004    0.32079997    0.58770051    0.20840000
opls_146-244    H    0.14399985    0.32460002    0.39380009    0.20850000
opls_146-245    H    0.03020018    0.19159994    0.36449969    0.20840000
opls_146-246    H    0.09699992    0.19450011    0.17039990    0.20840000
opls_144-247    H    0.13570007    0.23469992    0.95899951    0.09780000
opls_146-248    H    0.16910013    0.22450011    0.65979959    0.20840000
opls_146-249    H    0.26420003    0.27119995    0.04299935    0.20840000
opls_146-250    H    0.92349996    0.17920003    0.58770051    0.20840000
opls_146-251    H    0.85600015    0.17539998    0.39380009    0.20840000
opls_146-252    H    0.96979982    0.30840006    0.36449969    0.20840000
opls_146-253    H    0.90300008    0.30549989    0.17039990    0.20840000
opls_144-254    H    0.86429993    0.26530008    0.95899951    0.09780000
opls_146-255    H    0.83089987    0.27549989    0.65979959    0.20850000
opls_146-256    H    0.73579997    0.22880005    0.04299935    0.20840000
opls_146-257    H    0.42349996    0.67920003    0.08770051    0.20840000
opls_146-258    H    0.35600015    0.67539998    0.89380009    0.20840000
opls_146-259    H    0.46979982    0.80840006    0.86449969    0.20840000
opls_146-260    H    0.40300008    0.80549989    0.67039990    0.20850000
opls_144-261    H    0.36429993    0.76530008    0.45899951    0.09780000
opls_146-262    H    0.33089987    0.77549989    0.15979959    0.20840000
opls_146-263    H    0.23579997    0.72880005    0.54299935    0.20840000
opls_146-264    H    0.42920003    0.32650004    0.83769985    0.20840000
opls_146-265    H    0.42539998    0.39399985    0.64379943    0.20840000
opls_146-266    H    0.55840006    0.28020018    0.61450035    0.20840000
opls_146-267    H    0.55549989    0.34699992    0.42040057    0.20840000
opls_144-268    H    0.51530008    0.38570007    0.20900017    0.09780000
opls_146-269    H    0.52549989    0.41910013    0.90980025    0.20840000
opls_146-270    H    0.47880005    0.51420003    0.29300001    0.20850000
opls_146-271    H    0.92920003    0.82650004    0.33769985    0.20840000
opls_146-272    H    0.92539998    0.89399985    0.14379943    0.20840000
opls_146-273    H    0.05840006    0.78020018    0.11450035    0.20840000
opls_146-274    H    0.05549989    0.84699992    0.92040057    0.20840000
opls_144-275    H    0.01530008    0.88570007    0.70900017    0.09780000
opls_146-276    H    0.02549989    0.91910013    0.40980025    0.20840000
opls_146-277    H    0.97880005    0.01420003    0.79300001    0.20840000
opls_146-278    H    0.07079997    0.67349996    0.33769985    0.20840000
opls_146-279    H    0.07460002    0.60600015    0.14379943    0.20840000
opls_146-280    H    0.94159994    0.71979982    0.11450035    0.20840000
opls_146-281    H    0.94450011    0.65300008    0.92040057    0.20850000
opls_144-282    H    0.98469992    0.61429993    0.70900017    0.09780000
opls_146-283    H    0.97450011    0.58089987    0.40980025    0.20840000
opls_146-284    H    0.02119995    0.48579997    0.79300001    0.20840000
opls_146-285    H    0.57079997    0.17349996    0.83769985    0.20840000
opls_146-286    H    0.57460002    0.10600015    0.64379943    0.20840000
opls_146-287    H    0.44159994    0.21979982    0.61450035    0.20840000
opls_146-288    H    0.44450011    0.15300008    0.42040057    0.20840000
opls_144-289    H    0.48469992    0.11429993    0.20900017    0.09780000
opls_146-290    H    0.47450011    0.08089987    0.90980025    0.20840000
opls_146-291    H    0.52119995    0.98579997    0.29300001    0.20840000
