#======================================================================
# Crystal Data Generated By AuToFF
#----------------------------------------------------------------------

data_AuToFF_phase_1

_cell_length_a                         48.6228
_cell_length_b                         45.0806
_cell_length_c                         3.8651
_cell_angle_alpha                      90.00
_cell_angle_beta                       85.04
_cell_angle_gamma                      90.00
_symmetry_space_group_name_H-M_alt     'P 1'
_symmetry_space_group_IT_number        1

loop_
_space_group_symop_operation_xyz
   'x, y, z'

loop_
   _atom_site_label
   _atom_site_type_symbol
   _atom_site_fract_x
   _atom_site_fract_y
   _atom_site_fract_z
   _atom_site_charge
opls_700-0    C    0.02815006    0.97261993    0.59332004    0.03560000
opls_145-1    C    0.01332001    0.94568994    0.53958064    -0.11350000
opls_700-2    C    0.05599999    0.97265010    0.68106954    0.03230000
opls_700-3    C    0.07378005    0.94562007    0.68826059    0.06740000
opls_145-4    C    0.10047994    0.94607991    0.50960105    -0.11980000
opls_145-5    C    0.11798009    0.92179008    0.51401073    -0.12230000
opls_700-6    C    0.10942992    0.89550006    0.69240018    0.06140000
opls_145-7    C    0.08289004    0.89500007    0.87094026    -0.12240000
opls_145-8    C    0.06574994    0.91968008    0.87435010    -0.12200000
opls_727-9    C    0.25770001    0.77843995    0.36479061    0.13580000
opls_727-10    C    0.27722999    0.75422000    0.34380957    0.13580000
opls_700-11    C    0.27054000    0.72647990    0.47702967    -0.19970000
opls_716-12    C    0.24301009    0.72215010    0.64236928    0.12000000
opls_716-13    C    0.22329995    0.74657990    0.66275041    0.12000000
opls_700-14    C    0.23118997    0.77530002    0.51957087    -0.19930000
opls_700-15    C    0.21075993    0.79953994    0.54454088    0.06800000
opls_700-16    C    0.29000003    0.70129989    0.45766915    0.06970000
opls_145-17    C    0.18331996    0.79492997    0.46530948    -0.12180000
opls_145-18    C    0.16435005    0.81800996    0.48759940    -0.17090000
opls_145-19    C    0.17201000    0.84678997    0.58984008    0.20680000
opls_145-20    C    0.19981994    0.85138995    0.66375025    -0.17130000
opls_145-21    C    0.21861010    0.82816999    0.64475072    -0.12020000
opls_145-22    C    0.31742008    0.70557002    0.53893139    -0.12150000
opls_145-23    C    0.33618007    0.68229993    0.51764911    -0.16810000
opls_145-24    C    0.32830000    0.65360998    0.41475918    0.20700000
opls_145-25    C    0.30045007    0.64925999    0.34143073    -0.17140000
opls_145-26    C    0.28185997    0.67268004    0.35947977    -0.12180000
opls_142-27    C    0.12761006    0.86938994    0.69288063    0.02980000
opls_700-28    C    0.44396998    0.52734990    0.31970955    0.03230000
opls_700-29    C    0.47184007    0.52738007    0.40706951    0.03480000
opls_145-30    C    0.48667993    0.55431006    0.46060894    -0.11010000
opls_700-31    C    0.42621007    0.44561009    0.31233931    0.06710000
opls_145-32    C    0.43426993    0.41968008    0.12608099    -0.12210000
opls_145-33    C    0.41716994    0.39496990    0.12972976    -0.12220000
opls_700-34    C    0.39064993    0.39541998    0.30872950    0.06140000
opls_145-35    C    0.38205992    0.42170002    0.48696054    -0.12230000
opls_145-36    C    0.39951010    0.44602002    0.49110013    -0.11910000
opls_142-37    C    0.37254004    0.36923998    0.30906971    0.02980000
opls_700-38    C    0.97184994    0.97261993    0.40667996    0.03560000
opls_145-39    C    0.98667999    0.94568994    0.46041936    -0.11350000
opls_700-40    C    0.94400001    0.97265010    0.31893046    0.03230000
opls_700-41    C    0.92621995    0.94562007    0.31173941    0.06740000
opls_145-42    C    0.89952006    0.94607991    0.49039895    -0.11980000
opls_145-43    C    0.88202012    0.92179008    0.48598927    -0.12230000
opls_700-44    C    0.89057008    0.89550006    0.30759982    0.06140000
opls_145-45    C    0.91710996    0.89500007    0.12905974    -0.12240000
opls_145-46    C    0.93425006    0.91968008    0.12564990    -0.12200000
opls_727-47    C    0.74229999    0.77843995    0.63520939    0.13580000
opls_727-48    C    0.72277001    0.75422000    0.65619043    0.13580000
opls_700-49    C    0.72946000    0.72647990    0.52297033    -0.19970000
opls_716-50    C    0.75698991    0.72215010    0.35763072    0.12000000
opls_716-51    C    0.77670005    0.74657990    0.33724959    0.12000000
opls_700-52    C    0.76881003    0.77530002    0.48042913    -0.19930000
opls_700-53    C    0.78924007    0.79953994    0.45545912    0.06800000
opls_700-54    C    0.70999997    0.70129989    0.54233085    0.06970000
opls_145-55    C    0.81668004    0.79492997    0.53469052    -0.12180000
opls_145-56    C    0.83564995    0.81800996    0.51240060    -0.17090000
opls_145-57    C    0.82799000    0.84678997    0.41015992    0.20680000
opls_145-58    C    0.80018006    0.85138995    0.33624975    -0.17140000
opls_145-59    C    0.78139011    0.82816999    0.35524928    -0.12020000
opls_145-60    C    0.68257990    0.70557002    0.46107120    -0.12150000
opls_145-61    C    0.66381993    0.68229993    0.48235089    -0.16810000
opls_145-62    C    0.67170000    0.65360998    0.58524082    0.20690000
opls_145-63    C    0.69954993    0.64925999    0.65856927    -0.17140000
opls_145-64    C    0.71814003    0.67268004    0.64052023    -0.12180000
opls_142-65    C    0.87238994    0.86938994    0.30711937    0.02980000
opls_700-66    C    0.55603002    0.52734990    0.68029045    0.03230000
opls_700-67    C    0.52815993    0.52738007    0.59293049    0.03480000
opls_145-68    C    0.51332007    0.55431006    0.53939106    -0.11010000
opls_700-69    C    0.57378993    0.44561009    0.68766069    0.06710000
opls_145-70    C    0.56573005    0.41968008    0.87392160    -0.12210000
opls_145-71    C    0.58283006    0.39496990    0.87027024    -0.12220000
opls_700-72    C    0.60935007    0.39541998    0.69127050    0.06140000
opls_145-73    C    0.61794008    0.42170002    0.51303946    -0.12240000
opls_145-74    C    0.60049011    0.44602002    0.50889987    -0.11910000
opls_142-75    C    0.62745996    0.36923998    0.69093029    0.02980000
opls_700-76    C    0.97184994    0.02738007    0.40667996    0.03560000
opls_145-77    C    0.98667999    0.05431006    0.46041936    -0.11350000
opls_700-78    C    0.94400001    0.02734990    0.31893046    0.03230000
opls_700-79    C    0.92621995    0.05437993    0.31173941    0.06740000
opls_145-80    C    0.89952006    0.05392009    0.49039895    -0.11980000
opls_145-81    C    0.88202012    0.07820992    0.48598927    -0.12230000
opls_700-82    C    0.89057008    0.10449994    0.30759982    0.06140000
opls_145-83    C    0.91710996    0.10499993    0.12905974    -0.12240000
opls_145-84    C    0.93425006    0.08031992    0.12564990    -0.12210000
opls_727-85    C    0.74229999    0.22156005    0.63520939    0.13580000
opls_727-86    C    0.72277001    0.24578000    0.65619043    0.13580000
opls_700-87    C    0.72946000    0.27352010    0.52297033    -0.19970000
opls_716-88    C    0.75698991    0.27784990    0.35763072    0.12000000
opls_716-89    C    0.77670005    0.25342010    0.33724959    0.12000000
opls_700-90    C    0.76881003    0.22469998    0.48042913    -0.19930000
opls_700-91    C    0.78924007    0.20046006    0.45545912    0.06800000
opls_700-92    C    0.70999997    0.29870011    0.54233085    0.06970000
opls_145-93    C    0.81668004    0.20507003    0.53469052    -0.12180000
opls_145-94    C    0.83564995    0.18199004    0.51240060    -0.17090000
opls_145-95    C    0.82799000    0.15321003    0.41015992    0.20680000
opls_145-96    C    0.80018006    0.14861005    0.33624975    -0.17140000
opls_145-97    C    0.78139011    0.17183001    0.35524928    -0.12020000
opls_145-98    C    0.68257990    0.29442998    0.46107120    -0.12150000
opls_145-99    C    0.66381993    0.31770007    0.48235089    -0.16810000
opls_145-100    C    0.67170000    0.34639002    0.58524082    0.20690000
opls_145-101    C    0.69954993    0.35074001    0.65856927    -0.17140000
opls_145-102    C    0.71814003    0.32731996    0.64052023    -0.12180000
opls_142-103    C    0.87238994    0.13061006    0.30711937    0.02980000
opls_700-104    C    0.55603002    0.47265010    0.68029045    0.03230000
opls_700-105    C    0.52815993    0.47261993    0.59293049    0.03480000
opls_145-106    C    0.51332007    0.44568994    0.53939106    -0.11010000
opls_700-107    C    0.57378993    0.55438991    0.68766069    0.06710000
opls_145-108    C    0.56573005    0.58031992    0.87392160    -0.12210000
opls_145-109    C    0.58283006    0.60503010    0.87027024    -0.12220000
opls_700-110    C    0.60935007    0.60458002    0.69127050    0.06140000
opls_145-111    C    0.61794008    0.57829998    0.51303946    -0.12240000
opls_145-112    C    0.60049011    0.55397998    0.50889987    -0.11910000
opls_142-113    C    0.62745996    0.63076002    0.69093029    0.02980000
opls_700-114    C    0.02815006    0.02738007    0.59332004    0.03560000
opls_145-115    C    0.01332001    0.05431006    0.53958064    -0.11350000
opls_700-116    C    0.05599999    0.02734990    0.68106954    0.03230000
opls_700-117    C    0.07378005    0.05437993    0.68826059    0.06740000
opls_145-118    C    0.10047994    0.05392009    0.50960105    -0.11980000
opls_145-119    C    0.11798009    0.07820992    0.51401073    -0.12220000
opls_700-120    C    0.10942992    0.10449994    0.69240018    0.06140000
opls_145-121    C    0.08289004    0.10499993    0.87094026    -0.12240000
opls_145-122    C    0.06574994    0.08031992    0.87435010    -0.12210000
opls_727-123    C    0.25770001    0.22156005    0.36479061    0.13580000
opls_727-124    C    0.27722999    0.24578000    0.34380957    0.13580000
opls_700-125    C    0.27054000    0.27352010    0.47702967    -0.19970000
opls_716-126    C    0.24301009    0.27784990    0.64236928    0.12000000
opls_716-127    C    0.22329995    0.25342010    0.66275041    0.12000000
opls_700-128    C    0.23118997    0.22469998    0.51957087    -0.19920000
opls_700-129    C    0.21075993    0.20046006    0.54454088    0.06800000
opls_700-130    C    0.29000003    0.29870011    0.45766915    0.06970000
opls_145-131    C    0.18331996    0.20507003    0.46530948    -0.12170000
opls_145-132    C    0.16435005    0.18199004    0.48759940    -0.17090000
opls_145-133    C    0.17201000    0.15321003    0.58984008    0.20680000
opls_145-134    C    0.19981994    0.14861005    0.66375025    -0.17130000
opls_145-135    C    0.21861010    0.17183001    0.64475072    -0.12020000
opls_145-136    C    0.31742008    0.29442998    0.53893139    -0.12150000
opls_145-137    C    0.33618007    0.31770007    0.51764911    -0.16810000
opls_145-138    C    0.32830000    0.34639002    0.41475918    0.20690000
opls_145-139    C    0.30045007    0.35074001    0.34143073    -0.17130000
opls_145-140    C    0.28185997    0.32731996    0.35947977    -0.12180000
opls_142-141    C    0.12761006    0.13061006    0.69288063    0.02980000
opls_700-142    C    0.44396998    0.47265010    0.31970955    0.03230000
opls_700-143    C    0.47184007    0.47261993    0.40706951    0.03480000
opls_145-144    C    0.48667993    0.44568994    0.46060894    -0.11010000
opls_700-145    C    0.42621007    0.55438991    0.31233931    0.06710000
opls_145-146    C    0.43426993    0.58031992    0.12608099    -0.12210000
opls_145-147    C    0.41716994    0.60503010    0.12972976    -0.12220000
opls_700-148    C    0.39064993    0.60458002    0.30872950    0.06140000
opls_145-149    C    0.38205992    0.57829998    0.48696054    -0.12240000
opls_145-150    C    0.39951010    0.55397998    0.49110013    -0.11910000
opls_142-151    C    0.37254004    0.63076002    0.30906971    0.02980000
opls_700-152    C    0.01392003    0.00000000    0.54919987    0.00150000
opls_145-153    C    0.06864998    0.00000000    0.73495956    -0.16720000
opls_700-154    C    0.98607997    0.00000000    0.45080013    0.00150000
opls_145-155    C    0.93135002    0.00000000    0.26504044    -0.16720000
opls_700-156    C    0.48607002    0.50000000    0.45102087    0.00150000
opls_145-157    C    0.43132011    0.50000000    0.26615974    -0.16690000
opls_700-158    C    0.51392998    0.50000000    0.54897913    0.00150000
opls_145-159    C    0.56868010    0.50000000    0.73384026    -0.16690000
opls_750-160    N    0.15387993    0.87121999    0.60274969    -0.27530000
opls_750-161    N    0.65371998    0.62904997    0.59942035    -0.27990000
opls_750-162    N    0.80120993    0.25984991    0.17395121    -0.34470000
opls_750-163    N    0.76633003    0.30302991    0.21011941    -0.34570000
opls_750-164    N    0.84612007    0.87121999    0.39725031    -0.27520000
opls_750-165    N    0.34628002    0.62904997    0.40057965    -0.28000000
opls_750-166    N    0.19879005    0.25984991    0.82605139    -0.34470000
opls_750-167    N    0.23366997    0.30302991    0.78988059    -0.34580000
opls_750-168    N    0.84612007    0.12878001    0.39725031    -0.27530000
opls_750-169    N    0.34628002    0.37095003    0.40057965    -0.28000000
opls_750-170    N    0.19879005    0.74015009    0.82605139    -0.34470000
opls_750-171    N    0.23366997    0.69697009    0.78988059    -0.34580000
opls_750-172    N    0.15387993    0.12878001    0.60274969    -0.27530000
opls_750-173    N    0.65371998    0.37095003    0.59942035    -0.28000000
opls_750-174    N    0.80120993    0.74015009    0.17395121    -0.34460000
opls_750-175    N    0.76633003    0.69697009    0.21011941    -0.34580000
opls_202-176    S    0.80129997    0.29779994    0.03584877    0.47080000
opls_202-177    S    0.19870003    0.29779994    0.96415123    0.47080000
opls_202-178    S    0.19870003    0.70220006    0.96415123    0.47080000
opls_202-179    S    0.80129997    0.70220006    0.03584877    0.47080000
opls_146-180    H    0.10745009    0.96564997    0.35923046    0.12220000
opls_146-181    H    0.13837005    0.92281003    0.37252962    0.11840000
opls_146-182    H    0.07590003    0.87518999    0.01615065    0.10900000
opls_146-183    H    0.04592004    0.91885002    0.02877978    0.11300000
opls_146-184    H    0.17691995    0.77317006    0.37859098    0.11360000
opls_146-185    H    0.14343998    0.81402000    0.41620051    0.11490000
opls_146-186    H    0.20623004    0.87340009    0.74083135    0.11400000
opls_146-187    H    0.23957000    0.83217992    0.71299947    0.11440000
opls_146-188    H    0.32394012    0.72728003    0.62583948    0.11380000
opls_146-189    H    0.35712996    0.68610999    0.58858054    0.11500000
opls_146-190    H    0.29387997    0.62732994    0.26374973    0.11410000
opls_146-191    H    0.26087999    0.66882007    0.29128037    0.11420000
opls_144-192    H    0.11801997    0.84804994    0.78284017    0.06430000
opls_146-193    H    0.42418996    0.37517003    0.98461027    0.11470000
opls_146-194    H    0.36168011    0.42268004    0.62872992    0.11830000
opls_146-195    H    0.39252007    0.46558009    0.64152007    0.12220000
opls_144-196    H    0.38219005    0.34793991    0.21871023    0.06430000
opls_146-197    H    0.52324995    0.57556998    0.56398970    0.12990000
opls_146-198    H    0.02325000    0.92443002    0.56437145    0.12940000
opls_146-199    H    0.45409003    0.41888994    0.97149031    0.11440000
opls_146-200    H    0.89255011    0.96564997    0.64076954    0.12230000
opls_146-201    H    0.86162995    0.92281003    0.62747038    0.11840000
opls_146-202    H    0.92409997    0.87518999    0.98384935    0.10900000
opls_146-203    H    0.95407996    0.91885002    0.97122022    0.11300000
opls_146-204    H    0.82308005    0.77317006    0.62140902    0.11370000
opls_146-205    H    0.85656002    0.81402000    0.58379949    0.11490000
opls_146-206    H    0.79376994    0.87340009    0.25917125    0.11400000
opls_146-207    H    0.76043000    0.83217992    0.28700053    0.11450000
opls_146-208    H    0.67606009    0.72728003    0.37416052    0.11380000
opls_146-209    H    0.64287004    0.68610999    0.41141946    0.11500000
opls_146-210    H    0.70612003    0.62732994    0.73625027    0.11410000
opls_146-211    H    0.73912001    0.66882007    0.70871963    0.11420000
opls_144-212    H    0.88198003    0.84804994    0.21715983    0.06430000
opls_146-213    H    0.57581004    0.37517003    0.01538973    0.11470000
opls_146-214    H    0.63832010    0.42268004    0.37127008    0.11830000
opls_146-215    H    0.60747993    0.46558009    0.35847993    0.12220000
opls_144-216    H    0.61780995    0.34793991    0.78128977    0.06430000
opls_146-217    H    0.47675005    0.57556998    0.43601030    0.12990000
opls_146-218    H    0.97674998    0.92443002    0.43563115    0.12950000
opls_146-219    H    0.54590997    0.41888994    0.02850969    0.11440000
opls_146-220    H    0.89255011    0.03435003    0.64076954    0.12220000
opls_146-221    H    0.86162995    0.07718997    0.62747038    0.11830000
opls_146-222    H    0.92409997    0.12481001    0.98384935    0.10900000
opls_146-223    H    0.95407996    0.08114998    0.97122022    0.11300000
opls_146-224    H    0.82308005    0.22682994    0.62140902    0.11360000
opls_146-225    H    0.85656002    0.18598000    0.58379949    0.11490000
opls_146-226    H    0.79376994    0.12659991    0.25917125    0.11400000
opls_146-227    H    0.76043000    0.16782008    0.28700053    0.11440000
opls_146-228    H    0.67606009    0.27271997    0.37416052    0.11380000
opls_146-229    H    0.64287004    0.31389001    0.41141946    0.11510000
opls_146-230    H    0.70612003    0.37267006    0.73625027    0.11410000
opls_146-231    H    0.73912001    0.33117993    0.70871963    0.11420000
opls_144-232    H    0.88198003    0.15195006    0.21715983    0.06430000
opls_146-233    H    0.57581004    0.62482997    0.01538973    0.11470000
opls_146-234    H    0.63832010    0.57731996    0.37127008    0.11830000
opls_146-235    H    0.60747993    0.53441991    0.35847993    0.12220000
opls_144-236    H    0.61780995    0.65206009    0.78128977    0.06440000
opls_146-237    H    0.47675005    0.42443002    0.43601030    0.12990000
opls_146-238    H    0.97674998    0.07556998    0.43563115    0.12940000
opls_146-239    H    0.54590997    0.58111006    0.02850969    0.11440000
opls_146-240    H    0.10745009    0.03435003    0.35923046    0.12220000
opls_146-241    H    0.13837005    0.07718997    0.37252962    0.11830000
opls_146-242    H    0.07590003    0.12481001    0.01615065    0.10900000
opls_146-243    H    0.04592004    0.08114998    0.02877978    0.11300000
opls_146-244    H    0.17691995    0.22682994    0.37859098    0.11360000
opls_146-245    H    0.14343998    0.18598000    0.41620051    0.11490000
opls_146-246    H    0.20623004    0.12659991    0.74083135    0.11410000
opls_146-247    H    0.23957000    0.16782008    0.71299947    0.11440000
opls_146-248    H    0.32394012    0.27271997    0.62583948    0.11380000
opls_146-249    H    0.35712996    0.31389001    0.58858054    0.11500000
opls_146-250    H    0.29387997    0.37267006    0.26374973    0.11410000
opls_146-251    H    0.26087999    0.33117993    0.29128037    0.11420000
opls_144-252    H    0.11801997    0.15195006    0.78284017    0.06440000
opls_146-253    H    0.42418996    0.62482997    0.98461027    0.11470000
opls_146-254    H    0.36168011    0.57731996    0.62872992    0.11830000
opls_146-255    H    0.39252007    0.53441991    0.64152007    0.12220000
opls_144-256    H    0.38219005    0.65206009    0.21871023    0.06430000
opls_146-257    H    0.52324995    0.42443002    0.56398970    0.12990000
opls_146-258    H    0.02325000    0.07556998    0.56437145    0.12950000
opls_146-259    H    0.45409003    0.58111006    0.97149031    0.11440000
opls_146-260    H    0.08960005    0.00000000    0.81553101    0.11360000
opls_146-261    H    0.91039995    0.00000000    0.18446899    0.11360000
opls_146-262    H    0.41035995    0.50000000    0.18592071    0.11360000
opls_146-263    H    0.58964005    0.50000000    0.81407929    0.11370000
opls_719-264    F    0.26593994    0.80431006    0.21385128    -0.06790000
opls_719-265    F    0.30223010    0.75932996    0.17433037    -0.09260000
opls_719-266    F    0.73406004    0.80431006    0.78615132    -0.06790000
opls_719-267    F    0.69777011    0.75932996    0.82566963    -0.09260000
opls_719-268    F    0.73406004    0.19568994    0.78615132    -0.06790000
opls_719-269    F    0.69777011    0.24067004    0.82566963    -0.09260000
opls_719-270    F    0.26593994    0.19568994    0.21385128    -0.06790000
opls_719-271    F    0.30223010    0.24067004    0.17433037    -0.09260000
