#======================================================================
# Crystal Data Generated By AuToFF
#----------------------------------------------------------------------

data_AuToFF_phase_1

_cell_length_a                         23.2201
_cell_length_b                         23.2201
_cell_length_c                         5.5656
_cell_angle_alpha                      90.00
_cell_angle_beta                       90.00
_cell_angle_gamma                      120.00
_symmetry_space_group_name_H-M_alt     'P 1'
_symmetry_space_group_IT_number        1

loop_
_space_group_symop_operation_xyz
   'x, y, z'

loop_
   _atom_site_label
   _atom_site_type_symbol
   _atom_site_fract_x
   _atom_site_fract_y
   _atom_site_fract_z
   _atom_site_charge
opls_796-0    H    0.73901994    0.60932011    0.50000000    0.40230000
opls_910-1    H    0.36530970    0.51826975    0.50000000    0.28330000
opls_144-2    H    0.48074007    0.65595001    0.50000000    0.08520000
opls_146-3    H    0.54450985    0.62124998    0.50000000    0.09120000
opls_796-4    H    0.39068013    0.12969984    0.50000000    0.40230000
opls_910-5    H    0.48172974    0.84703966    0.50000000    0.28330000
opls_144-6    H    0.34404973    0.82478965    0.50000000    0.08520000
opls_146-7    H    0.37875008    0.92326000    0.50000000    0.09120000
opls_796-8    H    0.87029993    0.26098005    0.50000000    0.40230000
opls_910-9    H    0.15295988    0.63469009    0.50000000    0.28330000
opls_144-10    H    0.17520996    0.51925984    0.50000000    0.08520000
opls_146-11    H    0.07674006    0.45549002    0.50000000    0.09120000
opls_796-12    H    0.26098006    0.39067989    0.50000000    0.40230000
opls_910-13    H    0.63469006    0.48172976    0.50000000    0.28330000
opls_144-14    H    0.51925993    0.34404999    0.50000000    0.08520000
opls_146-15    H    0.45549015    0.37875002    0.50000000    0.09120000
opls_796-16    H    0.60931962    0.87029966    0.50000000    0.40230000
opls_910-17    H    0.51827001    0.15295984    0.50000000    0.28330000
opls_144-18    H    0.65595002    0.17520985    0.50000000    0.08520000
opls_146-19    H    0.62124992    0.07674000    0.50000000    0.09120000
opls_796-20    H    0.12970007    0.73901995    0.50000000    0.40230000
opls_910-21    H    0.84704012    0.36530991    0.50000000    0.28330000
opls_144-22    H    0.82479004    0.48074016    0.50000000    0.08520000
opls_146-23    H    0.92325994    0.54450998    0.50000000    0.09120000
opls_280-24    C    0.30892003    0.59718984    0.50000000    0.32520000
opls_700-25    C    0.38179992    0.64044964    0.50000000    -0.11120000
opls_142-26    C    0.42759999    0.61956965    0.50000000    -0.05090000
opls_916-27    C    0.45538000    0.52559973    0.50000000    0.21280000
opls_145-28    C    0.52402002    0.56694995    0.50000000    -0.19200000
opls_145-29    C    0.56971017    0.54395003    0.50000000    -0.17860000
opls_280-30    C    0.40281008    0.71172995    0.50000000    0.32520000
opls_700-31    C    0.35955002    0.74134973    0.50000000    -0.11120000
opls_142-32    C    0.38042966    0.80802966    0.50000000    -0.05090000
opls_916-33    C    0.47439982    0.92977990    0.50000000    0.21280000
opls_145-34    C    0.43304979    0.95706990    0.50000000    -0.19200000
opls_145-35    C    0.45604985    0.02575985    0.50000000    -0.17860000
opls_280-36    C    0.28826964    0.69107970    0.50000000    0.32520000
opls_700-37    C    0.25865024    0.61820013    0.50000000    -0.11120000
opls_142-38    C    0.19196985    0.57239970    0.50000000    -0.05090000
opls_916-39    C    0.07021994    0.54461988    0.50000000    0.21280000
opls_145-40    C    0.04293019    0.47598015    0.50000000    -0.19200000
opls_145-41    C    0.97423998    0.43029012    0.50000000    -0.17860000
opls_280-42    C    0.69107997    0.40281016    0.50000000    0.32520000
opls_700-43    C    0.61819983    0.35954986    0.50000000    -0.11120000
opls_142-44    C    0.57239976    0.38042985    0.50000000    -0.05090000
opls_916-45    C    0.54461975    0.47439978    0.50000000    0.21280000
opls_145-46    C    0.47597998    0.43305005    0.50000000    -0.19200000
opls_145-47    C    0.43028983    0.45604997    0.50000000    -0.17860000
opls_280-48    C    0.59718992    0.28827005    0.50000000    0.32520000
opls_700-49    C    0.64044973    0.25864977    0.50000000    -0.11120000
opls_142-50    C    0.61957009    0.19196984    0.50000000    -0.05090000
opls_916-51    C    0.52560018    0.07022010    0.50000000    0.21280000
opls_145-52    C    0.56695021    0.04293010    0.50000000    -0.19200000
opls_145-53    C    0.54394990    0.97423965    0.50000000    -0.17860000
opls_280-54    C    0.71173011    0.30891980    0.50000000    0.32520000
opls_700-55    C    0.74134976    0.38179987    0.50000000    -0.11120000
opls_142-56    C    0.80802990    0.42759981    0.50000000    -0.05090000
opls_916-57    C    0.92978006    0.45538012    0.50000000    0.21280000
opls_145-58    C    0.95706981    0.52401985    0.50000000    -0.19200000
opls_145-59    C    0.02576002    0.56970988    0.50000000    -0.17860000
opls_238-60    N    0.41383007    0.55465011    0.50000000    -0.21560000
opls_238-61    N    0.44534999    0.85917988    0.50000000    -0.21560000
opls_238-62    N    0.14081994    0.58617001    0.50000000    -0.21560000
opls_238-63    N    0.58616993    0.44534989    0.50000000    -0.21560000
opls_238-64    N    0.55465001    0.14082012    0.50000000    -0.21570000
opls_238-65    N    0.85918006    0.41382999    0.50000000    -0.21560000
opls_494-66    O    0.67106987    0.63786973    0.72027993    -0.46080000
opls_494-67    O    0.36213006    0.03320023    0.72027993    -0.46080000
opls_494-68    O    0.96680007    0.32893004    0.72027993    -0.46080000
opls_494-69    O    0.32892988    0.36212977    0.72027993    -0.46080000
opls_494-70    O    0.63786994    0.96679977    0.72027993    -0.46080000
opls_494-71    O    0.03319993    0.67106996    0.72027993    -0.46080000
opls_494-72    O    0.32892988    0.36212977    0.27972007    -0.46080000
opls_494-73    O    0.63786994    0.96679977    0.27972007    -0.46100000
opls_494-74    O    0.03319993    0.67106996    0.27972007    -0.46080000
opls_494-75    O    0.67106987    0.63786973    0.27972007    -0.46080000
opls_494-76    O    0.36213006    0.03320023    0.27972007    -0.46090000
opls_494-77    O    0.96680007    0.32893004    0.27972007    -0.46080000
opls_281-78    O    0.28719964    0.53750970    0.50000000    -0.33680000
opls_154-79    O    0.69805001    0.56864967    0.50000000    -0.47200000
opls_281-80    O    0.46249003    0.74968969    0.50000000    -0.33680000
opls_154-81    O    0.43135000    0.12939998    0.50000000    -0.47190000
opls_281-82    O    0.25031007    0.71280011    0.50000000    -0.33680000
opls_154-83    O    0.87059973    0.30194985    0.50000000    -0.47190000
opls_281-84    O    0.71280011    0.46248981    0.50000000    -0.33680000
opls_154-85    O    0.30194974    0.43134983    0.50000000    -0.47200000
opls_281-86    O    0.53750972    0.25030981    0.50000000    -0.33680000
opls_154-87    O    0.56865000    0.87060002    0.50000000    -0.47190000
opls_281-88    O    0.74968993    0.28719989    0.50000000    -0.33680000
opls_154-89    O    0.12940002    0.69804965    0.50000000    -0.47190000
opls_474-90    S    0.65580994    0.60320003    0.50000000    1.07870000
opls_474-91    S    0.39679983    0.05260975    0.50000000    1.07870000
opls_474-92    S    0.94738997    0.34418972    0.50000000    1.07870000
opls_474-93    S    0.34419006    0.39679997    0.50000000    1.07870000
opls_474-94    S    0.60319992    0.94738975    0.50000000    1.07870000
opls_474-95    S    0.05260978    0.65580978    0.50000000    1.07870000
