#======================================================================
# Crystal Data Generated By AuToFF
#----------------------------------------------------------------------

data_AuToFF_phase_1

_cell_length_a                         22.6785
_cell_length_b                         22.6620
_cell_length_c                         6.7659
_cell_angle_alpha                      90.08
_cell_angle_beta                       90.11
_cell_angle_gamma                      60.00
_symmetry_space_group_name_H-M_alt     'P 1'
_symmetry_space_group_IT_number        1

loop_
_space_group_symop_operation_xyz
   'x, y, z'

loop_
   _atom_site_label
   _atom_site_type_symbol
   _atom_site_fract_x
   _atom_site_fract_y
   _atom_site_fract_z
   _atom_site_charge
opls_700-0    C    0.02480015    0.04539994    0.00001035    0.06050000
opls_145-1    C    0.95451982    0.07031018    0.00000000    -0.17550000
opls_700-2    C    0.92870008    0.02541976    0.00000000    0.06260000
opls_145-3    C    0.97405013    0.95512028    0.00000000    -0.17570000
opls_700-4    C    0.04470020    0.92928016    0.99998965    0.06360000
opls_145-5    C    0.06959979    0.97466023    0.00000000    -0.17840000
opls_142-6    C    0.04751044    0.09523979    0.99994975    0.08440000
opls_142-7    C    0.85624984    0.04796026    0.00002069    0.08380000
opls_142-8    C    0.09460996    0.85679027    0.00001035    0.08380000
opls_145-9    C    0.73937012    0.13290986    0.00000000    0.23080000
opls_145-10    C    0.69754009    0.20443982    0.00000000    -0.22930000
opls_700-11    C    0.70669019    0.09296022    0.99998965    0.08140000
opls_700-12    C    0.62666011    0.23947008    0.00001035    0.08230000
opls_145-13    C    0.63574028    0.12808983    0.00000000    -0.24860000
opls_145-14    C    0.59382993    0.19967024    0.00000000    0.20230000
opls_145-15    C    0.13264998    0.12706010    0.99996896    0.20270000
opls_145-16    C    0.20414031    0.09732983    0.00001035    -0.23170000
opls_700-17    C    0.09291031    0.19972985    0.99997931    0.08120000
opls_700-18    C    0.23922023    0.13317990    0.00002069    0.08230000
opls_145-19    C    0.12807008    0.23554987    0.00001035    -0.22960000
opls_145-20    C    0.19962009    0.20582010    0.99997931    0.20270000
opls_145-21    C    0.12675031    0.73974981    0.00000000    0.20280000
opls_145-22    C    0.09716003    0.69781000    0.00000000    -0.23180000
opls_700-23    C    0.19934026    0.70710001    0.00000000    0.08160000
opls_700-24    C    0.13313011    0.62687005    0.00000000    0.08190000
opls_145-25    C    0.23525989    0.63611013    0.00001035    -0.21910000
opls_145-26    C    0.20572987    0.59410001    0.00000000    0.20210000
opls_142-27    C    0.23796024    0.47691993    0.99998965    0.07530000
opls_145-28    C    0.37789012    0.26277994    0.99998965    -0.16820000
opls_142-29    C    0.28471009    0.23784981    0.99992019    0.07040000
opls_142-30    C    0.47676013    0.28464022    0.99998965    0.07970000
opls_145-31    C    0.35867005    0.37791991    0.00000000    -0.16820000
opls_700-32    C    0.28789032    0.40409987    0.00001035    0.05520000
opls_700-33    C    0.30748025    0.28787005    0.99998965    0.05520000
opls_145-34    C    0.26282008    0.35871013    0.00001035    -0.16910000
opls_700-35    C    0.40402003    0.30745993    0.00001035    0.05690000
opls_148-36    C    0.74245027    0.01621994    0.99998965    -0.42410000
opls_148-37    C    0.59127975    0.31612018    0.00000000    -0.42400000
opls_148-38    C    0.01624979    0.24068019    0.00001035    -0.42410000
opls_148-39    C    0.31579020    0.09183979    0.00002069    -0.42350000
opls_148-40    C    0.24016019    0.74296995    0.00000000    -0.42410000
opls_148-41    C    0.09202024    0.59132008    0.99998965    -0.42390000
opls_700-42    C    0.97434021    0.95465000    0.50003030    0.06260000
opls_145-43    C    0.04461997    0.92955021    0.49999926    -0.17570000
opls_700-44    C    0.07062991    0.97426026    0.49999039    0.06270000
opls_145-45    C    0.02541033    0.04461986    0.49999039    -0.17030000
opls_700-46    C    0.95470981    0.07068009    0.49998005    0.06000000
opls_145-47    C    0.92966025    0.02539989    0.49999926    -0.17690000
opls_142-48    C    0.95170016    0.90476986    0.49979973    0.08150000
opls_142-49    C    0.14311029    0.95152004    0.50000961    0.08380000
opls_142-50    C    0.90482010    0.14321024    0.50001995    0.08150000
opls_145-51    C    0.26006007    0.86664992    0.49999926    0.20210000
opls_145-52    C    0.30203033    0.79511996    0.49999926    -0.23180000
opls_700-53    C    0.29266010    0.90668006    0.49999039    0.08120000
opls_700-54    C    0.37292035    0.76020994    0.49999926    0.08230000
opls_145-55    C    0.36362010    0.87165999    0.49999926    -0.24860000
opls_145-56    C    0.40564020    0.80009997    0.49999926    0.20270000
opls_145-57    C    0.86688014    0.87264998    0.49994901    0.19630000
opls_145-58    C    0.79541020    0.90232981    0.49999926    -0.22930000
opls_700-59    C    0.90681013    0.79997004    0.50000961    0.08140000
opls_700-60    C    0.76042997    0.86640026    0.50000961    0.08230000
opls_145-61    C    0.87172012    0.76408991    0.50003030    -0.22060000
opls_145-62    C    0.80018989    0.79377024    0.49994901    0.20280000
opls_145-63    C    0.87256004    0.26028994    0.50000961    0.20270000
opls_145-64    C    0.90210994    0.30223993    0.49998005    -0.22930000
opls_700-65    C    0.79994007    0.29296980    0.49999039    0.08170000
opls_700-66    C    0.86618000    0.37317988    0.49999039    0.08230000
opls_145-67    C    0.76401997    0.36398005    0.49999039    -0.22950000
opls_145-68    C    0.79358992    0.40597999    0.49999926    0.20220000
opls_142-69    C    0.76149012    0.52309994    0.50001995    0.08210000
opls_145-70    C    0.62164030    0.73719000    0.49999926    -0.16900000
opls_142-71    C    0.71506006    0.76191019    0.49992979    0.07340000
opls_142-72    C    0.52278003    0.71522017    0.49999926    0.07040000
opls_145-73    C    0.64082994    0.62205003    0.49999039    -0.16810000
opls_700-74    C    0.71160018    0.59588994    0.49999039    0.05690000
opls_700-75    C    0.69207004    0.71206983    0.50000961    0.05710000
opls_145-76    C    0.73667021    0.64125013    0.49999926    -0.16800000
opls_700-77    C    0.59550005    0.69249982    0.50000961    0.05710000
opls_148-78    C    0.25675012    0.98339028    0.49999039    -0.42390000
opls_148-79    C    0.40843036    0.68352978    0.49999039    -0.42390000
opls_148-80    C    0.98347991    0.75904010    0.50004951    -0.42410000
opls_148-81    C    0.68382041    0.90765987    0.50001995    -0.42380000
opls_148-82    C    0.75916009    0.25704992    0.49999039    -0.42400000
opls_148-83    C    0.90737041    0.40861979    0.49998005    -0.42390000
opls_144-84    H    0.84606990    0.00568978    0.00009016    0.09240000
opls_144-85    H    0.14705022    0.84659995    0.00002956    0.09290000
opls_144-86    H    0.48681012    0.32707985    0.99986994    0.08650000
opls_146-87    H    0.23332001    0.04171003    0.00010050    0.10930000
opls_146-88    H    0.72389018    0.23367994    0.00001035    0.10680000
opls_146-89    H    0.04159010    0.72411986    0.99980934    0.10680000
opls_144-90    H    0.00534015    0.14773977    0.99953886    0.08090000
opls_146-91    H    0.09894006    0.29114981    0.00006060    0.10890000
opls_146-92    H    0.29082026    0.60975998    0.99997044    0.10940000
opls_146-93    H    0.60933015    0.09890983    0.99994975    0.10980000
opls_144-94    H    0.18551040    0.48692987    0.99988915    0.07950000
opls_144-95    H    0.32713006    0.18535988    0.99932012    0.08650000
opls_144-96    H    0.15336993    0.99375028    0.50005986    0.09940000
opls_144-97    H    0.85239980    0.15338020    0.50015002    0.09120000
opls_144-98    H    0.51284008    0.67268982    0.49994901    0.09850000
opls_146-99    H    0.76618033    0.95793996    0.50012933    0.10680000
opls_146-100    H    0.27578989    0.76576010    0.49999926    0.10820000
opls_146-101    H    0.95767002    0.27596978    0.49991945    0.10980000
opls_144-102    H    0.99393031    0.85229000    0.49838972    0.09940000
opls_146-103    H    0.90087008    0.70848999    0.50017958    0.10890000
opls_146-104    H    0.70846000    0.39033019    0.49995935    0.10940000
opls_146-105    H    0.38993996    0.90091998    0.49996970    0.10940000
opls_144-106    H    0.81394990    0.51300999    0.50004951    0.09660000
opls_144-107    H    0.67274993    0.81444022    0.49943910    0.07950000
opls_702-108    H    0.77523008    0.99393984    0.86962986    0.12720000
opls_702-109    H    0.70482019    0.99924984    0.99889889    0.12670000
opls_702-110    H    0.77480978    0.99401024    0.13140917    0.13330000
opls_702-111    H    0.55868994    0.33842986    0.13067017    0.12640000
opls_702-112    H    0.55867000    0.33839007    0.86910074    0.12990000
opls_702-113    H    0.62915017    0.33275999    0.00022022    0.12790000
opls_702-114    H    0.99406022    0.23005979    0.13030067    0.12830000
opls_702-115    H    0.99397007    0.23059011    0.86853023    0.12740000
opls_702-116    H    0.99930998    0.29528979    0.00120014    0.12600000
opls_702-117    H    0.33799990    0.10159992    0.86817994    0.13330000
opls_702-118    H    0.33238025    0.03731980    0.00210024    0.12650000
opls_702-119    H    0.33821992    0.10263989    0.12970947    0.12670000
opls_702-120    H    0.22962013    0.77567018    0.86934018    0.12830000
opls_702-121    H    0.29473978    0.70532019    0.99945018    0.12650000
opls_702-122    H    0.23000000    0.77543029    0.13119043    0.12990000
opls_702-123    H    0.10253030    0.55864992    0.13067904    0.12720000
opls_702-124    H    0.10230016    0.55872986    0.86908892    0.12640000
opls_702-125    H    0.03750012    0.62910992    0.00022022    0.12650000
opls_702-126    H    0.22441006    0.00555993    0.63121925    0.12990000
opls_702-127    H    0.22394989    0.00555016    0.36938969    0.12990000
opls_702-128    H    0.29430011    0.00044981    0.49935042    0.12600000
opls_702-129    H    0.44107003    0.66125985    0.36941038    0.12670000
opls_702-130    H    0.37066023    0.66677021    0.49958985    0.12880000
opls_702-131    H    0.44100022    0.66130984    0.63097981    0.12720000
opls_702-132    H    0.00556009    0.76800004    0.36646916    0.12470000
opls_702-133    H    0.00040984    0.70445028    0.50567922    0.12670000
opls_702-134    H    0.00586999    0.77071022    0.62810953    0.13000000
opls_702-135    H    0.66154996    0.89699000    0.62994964    0.12670000
opls_702-136    H    0.66149019    0.89775014    0.36838021    0.12990000
opls_702-137    H    0.66723009    0.96219005    0.50165906    0.12610000
opls_702-138    H    0.76947998    0.22464988    0.63126950    0.13330000
opls_702-139    H    0.76972016    0.22421008    0.36950054    0.13000000
opls_702-140    H    0.70454984    0.29458027    0.49918045    0.12600000
opls_702-141    H    0.89685995    0.44138017    0.36951975    0.12640000
opls_702-142    H    0.96186001    0.37069998    0.49937998    0.12790000
opls_702-143    H    0.89727986    0.44108012    0.63110988    0.12720000
opls_146-144    H    0.41326034    0.20791982    0.99998965    0.10940000
opls_146-145    H    0.37814983    0.41330021    0.99998965    0.10680000
opls_146-146    H    0.20799013    0.37817008    0.99998965    0.10690000
opls_146-147    H    0.58627008    0.79205980    0.49999039    0.10680000
opls_146-148    H    0.62139006    0.58664018    0.49999926    0.10980000
opls_146-149    H    0.79148997    0.62182024    0.49999039    0.10980000
opls_146-150    H    0.95464004    0.91970992    0.99998965    0.10960000
opls_146-151    H    0.12440987    0.95520027    0.99997931    0.10910000
opls_146-152    H    0.91917012    0.12516012    0.00000000    0.10910000
opls_146-153    H    0.07983036    0.87467989    0.49998005    0.10960000
opls_146-154    H    0.87482001    0.04504022    0.49999926    0.10910000
opls_146-155    H    0.04507014    0.07984017    0.49999039    0.10950000
opls_750-156    N    0.80905004    0.11130025    0.99998965    -0.28860000
opls_750-157    N    0.07861033    0.80948984    0.99998965    -0.28990000
opls_750-158    N    0.11084031    0.07906979    0.00002956    -0.29300000
opls_750-159    N    0.25371994    0.52432023    0.00001035    -0.28660000
opls_750-160    N    0.22156994    0.25367999    0.00003991    -0.28660000
opls_750-161    N    0.52408989    0.22146021    0.00001035    -0.28650000
opls_750-162    N    0.19036009    0.88819023    0.49999039    -0.29000000
opls_750-163    N    0.92076018    0.19056009    0.49999039    -0.29300000
opls_750-164    N    0.88842986    0.92082017    0.50011011    -0.28960000
opls_750-165    N    0.74563003    0.47576995    0.49999039    -0.28660000
opls_750-166    N    0.77825999    0.74588999    0.50003030    -0.28790000
opls_750-167    N    0.47537030    0.77835993    0.49999926    -0.28680000
