#======================================================================
# Crystal Data Generated By AuToFF
#----------------------------------------------------------------------

data_AuToFF_phase_1

_cell_length_a                         37.6300
_cell_length_b                         37.6300
_cell_length_c                         3.7200
_cell_angle_alpha                      90.00
_cell_angle_beta                       90.00
_cell_angle_gamma                      120.00
_symmetry_space_group_name_H-M_alt     'P 1'
_symmetry_space_group_IT_number        1

loop_
_space_group_symop_operation_xyz
   'x, y, z'

loop_
   _atom_site_label
   _atom_site_type_symbol
   _atom_site_fract_x
   _atom_site_fract_y
   _atom_site_fract_z
   _atom_site_charge
opls_142-0    C    0.55827997    0.47082993    0.52484946    0.06190000
opls_700-1    C    0.64692003    0.28997985    0.48000000    0.06380000
opls_145-2    C    0.68998008    0.31382995    0.47997043    -0.19000000
opls_700-3    C    0.61817013    0.37394004    0.48037903    0.06550000
opls_145-4    C    0.63242008    0.41184999    0.64690054    -0.10000000
opls_145-5    C    0.60931003    0.43157994    0.64468011    -0.18320000
opls_145-6    C    0.57111982    0.41360981    0.47805914    0.18080000
opls_145-7    C    0.55641004    0.37554981    0.31913978    -0.18420000
opls_145-8    C    0.57978999    0.35611997    0.31584946    -0.10010000
opls_700-9    C    0.52879999    0.48618993    0.51873118    0.03160000
opls_145-10    C    0.48640011    0.45808005    0.51640054    -0.19340000
opls_700-11    C    0.45753003    0.47130985    0.51644892    0.10530000
opls_148-12    C    0.41252981    0.43956986    0.51202957    -0.45120000
opls_142-13    C    0.52917016    0.08745007    0.52484946    0.06190000
opls_700-14    C    0.71002004    0.35693989    0.48000000    0.06380000
opls_145-15    C    0.68616988    0.37615002    0.47997043    -0.19000000
opls_700-16    C    0.62606000    0.24423003    0.48037903    0.06550000
opls_145-17    C    0.58814994    0.22056987    0.64690054    -0.10010000
opls_145-18    C    0.56841986    0.17772996    0.64468011    -0.18320000
opls_145-19    C    0.58639012    0.15750997    0.47805914    0.18080000
opls_145-20    C    0.62444988    0.18085990    0.31913978    -0.18420000
opls_145-21    C    0.64387993    0.22367004    0.31584946    -0.10010000
opls_700-22    C    0.51380995    0.04261007    0.51873118    0.03160000
opls_145-23    C    0.54192007    0.02832008    0.51640054    -0.19370000
opls_700-24    C    0.52869012    0.98622000    0.51644892    0.10530000
opls_148-25    C    0.56042995    0.97295982    0.51202957    -0.45140000
opls_142-26    C    0.91254988    0.44172000    0.52484946    0.06190000
opls_700-27    C    0.64306004    0.35307995    0.48000000    0.06380000
opls_145-28    C    0.62385003    0.31002003    0.47997043    -0.19000000
opls_700-29    C    0.75576987    0.38182993    0.48037903    0.06550000
opls_145-30    C    0.77942983    0.36757983    0.64690054    -0.10010000
opls_145-31    C    0.82227011    0.39069010    0.64468011    -0.18320000
opls_145-32    C    0.84248991    0.42887991    0.47805914    0.18080000
opls_145-33    C    0.81913993    0.44358999    0.31913978    -0.18420000
opls_145-34    C    0.77633008    0.42020999    0.31584946    -0.10010000
opls_700-35    C    0.95739006    0.47120000    0.51873118    0.03160000
opls_145-36    C    0.97167982    0.51359987    0.51640054    -0.19340000
opls_700-37    C    0.01377996    0.54246984    0.51644892    0.10530000
opls_148-38    C    0.02704008    0.58747001    0.51202957    -0.45140000
opls_142-39    C    0.44172003    0.52917007    0.52484946    0.06190000
opls_700-40    C    0.35307981    0.71001984    0.48000000    0.06380000
opls_145-41    C    0.31001992    0.68617005    0.47997043    -0.19000000
opls_700-42    C    0.38182987    0.62605996    0.48037903    0.06550000
opls_145-43    C    0.36757992    0.58815001    0.64690054    -0.10010000
opls_145-44    C    0.39068997    0.56842006    0.64468011    -0.18320000
opls_145-45    C    0.42888003    0.58638988    0.47805914    0.18080000
opls_145-46    C    0.44358981    0.62444988    0.31913978    -0.18420000
opls_145-47    C    0.42021001    0.64388003    0.31584946    -0.10010000
opls_700-48    C    0.47120001    0.51381007    0.51873118    0.03160000
opls_145-49    C    0.51359989    0.54191995    0.51640054    -0.19340000
opls_700-50    C    0.54246982    0.52868984    0.51644892    0.10530000
opls_148-51    C    0.58747003    0.56042983    0.51202957    -0.45140000
opls_142-52    C    0.47082984    0.91254993    0.52484946    0.06190000
opls_700-53    C    0.28997981    0.64305980    0.48000000    0.06380000
opls_145-54    C    0.31383012    0.62384998    0.47997043    -0.19000000
opls_700-55    C    0.37394000    0.75576997    0.48037903    0.06550000
opls_145-56    C    0.41184991    0.77942982    0.64690054    -0.10010000
opls_145-57    C    0.43158014    0.82227004    0.64468011    -0.18310000
opls_145-58    C    0.41360988    0.84249003    0.47805914    0.18080000
opls_145-59    C    0.37554997    0.81913980    0.31913978    -0.18420000
opls_145-60    C    0.35612007    0.77632996    0.31584946    -0.10010000
opls_700-61    C    0.48619005    0.95738993    0.51873118    0.03160000
opls_145-62    C    0.45807993    0.97167992    0.51640054    -0.19370000
opls_700-63    C    0.47130988    0.01378000    0.51644892    0.10540000
opls_148-64    C    0.43956990    0.02703987    0.51202957    -0.45130000
opls_142-65    C    0.08745012    0.55828000    0.52484946    0.06190000
opls_700-66    C    0.35693996    0.64692005    0.48000000    0.06380000
opls_145-67    C    0.37614997    0.68997997    0.47997043    -0.19000000
opls_700-68    C    0.24423013    0.61817007    0.48037903    0.06550000
opls_145-69    C    0.22057002    0.63241986    0.64690054    -0.10010000
opls_145-70    C    0.17772989    0.60930990    0.64468011    -0.18320000
opls_145-71    C    0.15750993    0.57111979    0.47805914    0.18080000
opls_145-72    C    0.18086007    0.55641001    0.31913978    -0.18420000
opls_145-73    C    0.22366992    0.57979001    0.31584946    -0.10010000
opls_700-74    C    0.04260994    0.52880000    0.51873118    0.03160000
opls_145-75    C    0.02832003    0.48639982    0.51640054    -0.19370000
opls_700-76    C    0.98621988    0.45752986    0.51644892    0.10530000
opls_148-77    C    0.97295992    0.41252999    0.51202957    -0.45130000
opls_750-78    N    0.54582009    0.43222004    0.47380914    -0.38190000
opls_750-79    N    0.56778010    0.11360006    0.47380914    -0.38200000
opls_750-80    N    0.88640008    0.45417990    0.47380914    -0.38210000
opls_750-81    N    0.45417991    0.56777996    0.47380914    -0.38200000
opls_750-82    N    0.43221990    0.88639994    0.47380914    -0.38210000
opls_750-83    N    0.11359977    0.54581979    0.47380914    -0.38210000
opls_144-84    H    0.59049998    0.49225004    0.56337097    0.09070000
opls_146-85    H    0.66092994    0.42588008    0.78823118    0.10000000
opls_146-86    H    0.62090983    0.46005989    0.78348118    0.09960000
opls_146-87    H    0.52704012    0.36130002    0.19019892    0.22260000
opls_146-88    H    0.56804001    0.32757988    0.17706989    0.10000000
opls_146-89    H    0.47560003    0.42544987    0.51762903    0.10380000
opls_146-90    H    0.70801005    0.29875993    0.48015054    0.10880000
opls_702-91    H    0.40729990    0.40789983    0.48727957    0.15500000
opls_702-92    H    0.39707005    0.44530992    0.29787097    0.14710000
opls_702-93    H    0.39768996    0.44131986    0.74836022    0.14790000
opls_144-94    H    0.50774997    0.09824988    0.56337097    0.09060000
opls_146-95    H    0.57412006    0.23505011    0.78823118    0.10000000
opls_146-96    H    0.53994007    0.16085010    0.78348118    0.09970000
opls_146-97    H    0.63869985    0.16573986    0.19019892    0.22260000
opls_146-98    H    0.67242000    0.24045999    0.17706989    0.10000000
opls_146-99    H    0.57454996    0.05015014    0.51762903    0.10380000
opls_146-100    H    0.70123993    0.40925000    0.48015054    0.10880000
opls_702-101    H    0.59209984    0.99939979    0.48727957    0.15500000
opls_702-102    H    0.55468986    0.95175973    0.29787097    0.14710000
opls_702-103    H    0.55868005    0.95636994    0.74836022    0.14790000
opls_144-104    H    0.90175004    0.40950009    0.56337097    0.09060000
opls_146-105    H    0.76495000    0.33906981    0.78823118    0.10000000
opls_146-106    H    0.83915011    0.37909001    0.78348118    0.09960000
opls_146-107    H    0.83425987    0.47295982    0.19019892    0.22270000
opls_146-108    H    0.75953984    0.43195982    0.17706989    0.10000000
opls_146-109    H    0.94985001    0.52439999    0.51762903    0.10390000
opls_146-110    H    0.59075002    0.29199007    0.48015054    0.10880000
opls_702-111    H    0.00060010    0.59270007    0.48727957    0.15500000
opls_702-112    H    0.04823994    0.60293005    0.29787097    0.14710000
opls_702-113    H    0.04362983    0.60230989    0.74836022    0.14790000
opls_144-114    H    0.40950002    0.50774996    0.56337097    0.09060000
opls_146-115    H    0.33907006    0.57411992    0.78823118    0.10000000
opls_146-116    H    0.37909002    0.53993981    0.78348118    0.09970000
opls_146-117    H    0.47295988    0.63869998    0.19019892    0.22260000
opls_146-118    H    0.43195984    0.67241981    0.17706989    0.10000000
opls_146-119    H    0.52439981    0.57454983    0.51762903    0.10380000
opls_146-120    H    0.29198980    0.70123976    0.48015054    0.10880000
opls_702-121    H    0.59269994    0.59209986    0.48727957    0.15500000
opls_702-122    H    0.60292979    0.55468978    0.29787097    0.14720000
opls_702-123    H    0.60230989    0.55867983    0.74836022    0.14790000
opls_144-124    H    0.49224988    0.90174982    0.56337097    0.09060000
opls_146-125    H    0.42587994    0.76494989    0.78823118    0.10000000
opls_146-126    H    0.46005993    0.83914990    0.78348118    0.09970000
opls_146-127    H    0.36129999    0.83425983    0.19019892    0.22260000
opls_146-128    H    0.32758000    0.75954001    0.17706989    0.10000000
opls_146-129    H    0.42545004    0.94984986    0.51762903    0.10380000
opls_146-130    H    0.29876007    0.59075000    0.48015054    0.10880000
opls_702-131    H    0.40790001    0.00059990    0.48727957    0.15510000
opls_702-132    H    0.44530999    0.04823996    0.29787097    0.14710000
opls_702-133    H    0.44131995    0.04363006    0.74836022    0.14790000
opls_144-134    H    0.09824996    0.59049991    0.56337097    0.09060000
opls_146-135    H    0.23504985    0.66092989    0.78823118    0.10000000
opls_146-136    H    0.16084989    0.62090999    0.78348118    0.09960000
opls_146-137    H    0.16573997    0.52703987    0.19019892    0.22270000
opls_146-138    H    0.24046001    0.56803987    0.17706989    0.10000000
opls_146-139    H    0.05014999    0.47560001    0.51762903    0.10380000
opls_146-140    H    0.40924998    0.70800993    0.48015054    0.10890000
opls_702-141    H    0.99939990    0.40729993    0.48727957    0.15500000
opls_702-142    H    0.95176006    0.39706995    0.29787097    0.14710000
opls_702-143    H    0.95637001    0.39768980    0.74836022    0.14790000
