#======================================================================
# Crystal Data Generated By AuToFF
#----------------------------------------------------------------------

data_AuToFF_phase_1

_cell_length_a                         30.0000
_cell_length_b                         30.0000
_cell_length_c                         5.0000
_cell_angle_alpha                      90.00
_cell_angle_beta                       90.00
_cell_angle_gamma                      120.00
_symmetry_space_group_name_H-M_alt     'P 1'
_symmetry_space_group_IT_number        1

loop_
_space_group_symop_operation_xyz
   'x, y, z'

loop_
   _atom_site_label
   _atom_site_type_symbol
   _atom_site_fract_x
   _atom_site_fract_y
   _atom_site_fract_z
   _atom_site_charge
opls_700-0    C    0.35171011    0.71650021    0.65056000    0.06440000
opls_145-1    C    0.29842005    0.68258011    0.65310000    -0.16190000
opls_700-2    C    0.27841007    0.62909014    0.64927000    0.06440000
opls_145-3    C    0.31233002    0.60972004    0.64370000    -0.16190000
opls_700-4    C    0.36583010    0.64321021    0.64149000    0.06430000
opls_145-5    C    0.38520002    0.69651003    0.64464000    -0.15560000
opls_142-6    C    0.40195004    0.62329008    0.63660000    0.07340000
opls_522-7    C    0.41549000    0.54937000    0.63246000    0.16210000
opls_523-8    C    0.39109994    0.49672989    0.57769000    -0.16030000
opls_522-9    C    0.41905001    0.47092002    0.57730000    -0.15930000
opls_521-10    C    0.47201011    0.49821021    0.63485000    0.14030000
opls_521-11    C    0.46854002    0.57541003    0.68957000    0.01770000
opls_521-12    C    0.50361995    0.47284991    0.63588000    0.17370000
opls_522-13    C    0.48257003    0.42056006    0.70166000    -0.16030000
opls_523-14    C    0.51403995    0.39850990    0.70249000    -0.15930000
opls_522-15    C    0.56644008    0.42849016    0.63615000    0.16210000
opls_521-16    C    0.58605011    0.48056023    0.57712000    0.02170000
opls_142-17    C    0.58819999    0.36014997    0.63432000    0.07450000
opls_700-18    C    0.62796992    0.34490985    0.63681000    0.06440000
opls_145-19    C    0.61300997    0.29252993    0.63510000    -0.16190000
opls_700-20    C    0.65001996    0.27691992    0.63841000    0.06420000
opls_145-21    C    0.70237995    0.31431990    0.64282000    -0.15560000
opls_700-22    C    0.71799000    0.36695000    0.64443000    0.06440000
opls_145-23    C    0.68059997    0.38192994    0.64166000    -0.16190000
opls_142-24    C    0.37162007    0.77255015    0.65312000    0.07450000
opls_522-25    C    0.44553013    0.86001025    0.64793000    0.16010000
opls_142-26    C    0.22236997    0.59295994    0.65049000    0.07380000
opls_522-27    C    0.13488997    0.57942993    0.65716000    0.16210000
opls_142-28    C    0.77303009    0.40669018    0.64945000    0.07350000
opls_522-29    C    0.86308002    0.42833004    0.65413000    0.16010000
opls_142-30    C    0.63473998    0.22187996    0.63767000    0.07350000
opls_522-31    C    0.56635992    0.13180985    0.63870000    0.16010000
opls_523-32    C    0.49848003    0.88833006    0.69417000    -0.15600000
opls_522-33    C    0.52429011    0.94209022    0.69251000    -0.15930000
opls_521-34    C    0.49668996    0.96767993    0.64154000    0.13980000
opls_521-35    C    0.41918009    0.88694018    0.59712000    0.02830000
opls_521-36    C    0.89566008    0.40927017    0.58681000    0.02170000
opls_521-37    C    0.97024000    0.49117000    0.66116000    0.17550000
opls_522-38    C    0.93886005    0.51158011    0.73597000    -0.15990000
opls_523-39    C    0.88533994    0.48008988    0.73314000    -0.15930000
opls_521-40    C    0.51464005    0.09940009    0.70487000    0.02770000
opls_521-41    C    0.52202008    0.02464016    0.63943000    0.17380000
opls_522-42    C    0.57393008    0.05583016    0.56617000    -0.15980000
opls_523-43    C    0.59596007    0.10935015    0.56514000    -0.15930000
opls_523-44    C    0.10657008    0.60417016    0.61445000    -0.15600000
opls_522-45    C    0.05281993    0.57621986    0.61554000    -0.16120000
opls_521-46    C    0.02720000    0.52285999    0.66186000    0.14040000
opls_521-47    C    0.10794001    0.52601002    0.70408000    0.02780000
opls_750-48    N    0.38491008    0.57402016    0.63344000    -0.32430000
opls_520-49    N    0.49502006    0.54955013    0.68798000    -0.28570000
opls_520-50    N    0.55477009    0.50127017    0.57823000    -0.28570000
opls_750-51    N    0.60107998    0.40845995    0.63505000    -0.32440000
opls_750-52    N    0.42088008    0.80479016    0.64946000    -0.32410000
opls_750-53    N    0.19013011    0.60997022    0.65455000    -0.32430000
opls_750-54    N    0.80842011    0.39375022    0.64763000    -0.32430000
opls_750-55    N    0.58641996    0.18647992    0.64072000    -0.32440000
opls_520-56    N    0.44506003    0.93927006    0.59661000    -0.28560000
opls_520-57    N    0.94762993    0.44054985    0.59154000    -0.28570000
opls_520-58    N    0.49393005    0.04742009    0.70388000    -0.28570000
opls_520-59    N    0.05560002    0.49953004    0.70369000    -0.28560000
opls_146-60    H    0.27240011    0.69779021    0.65740000    0.12420000
opls_146-61    H    0.29710996    0.56849992    0.64100000    0.12090000
opls_146-62    H    0.42642002    0.72252005    0.64266000    0.12090000
opls_144-63    H    0.44275000    0.65071999    0.63181000    0.12720000
opls_526-64    H    0.35033997    0.47599993    0.53304000    0.12270000
opls_525-65    H    0.39960003    0.43043006    0.52745000    0.12570000
opls_524-66    H    0.48903996    0.61578992    0.73919000    0.10460000
opls_525-67    H    0.44262006    0.39725012    0.75895000    0.12400000
opls_526-68    H    0.49743002    0.35868004    0.76077000    0.12750000
opls_524-69    H    0.62639996    0.50455991    0.52931000    0.12710000
opls_144-70    H    0.54823004    0.33016009    0.62683000    0.12460000
opls_146-71    H    0.57246992    0.26381984    0.63152000    0.11950000
opls_146-72    H    0.73107999    0.30247999    0.64543000    0.11810000
opls_146-73    H    0.69242997    0.42246994    0.64331000    0.11810000
opls_144-74    H    0.34421002    0.78591003    0.66199000    0.12810000
opls_144-75    H    0.20903008    0.55218015    0.64288000    0.12720000
opls_144-76    H    0.78310009    0.44671018    0.64847000    0.09790000
opls_144-77    H    0.66471992    0.21184985    0.64103000    0.12720000
opls_526-78    H    0.51944995    0.86836990    0.73399000    0.12610000
opls_525-79    H    0.56507004    0.96320008    0.73590000    0.12620000
opls_524-80    H    0.37851002    0.86699003    0.55424000    0.10460000
opls_524-81    H    0.87938994    0.36936987    0.52914000    0.12460000
opls_525-82    H    0.95538003    0.55101006    0.80260000    0.12710000
opls_526-83    H    0.86195009    0.49609018    0.79831000    0.12380000
opls_524-84    H    0.49092996    0.11579992    0.75841000    0.12420000
opls_525-85    H    0.59692006    0.03915012    0.50345000    0.12710000
opls_526-86    H    0.63545001    0.13255001    0.50117000    0.12390000
opls_526-87    H    0.12654007    0.64521015    0.57749000    0.12270000
opls_525-88    H    0.03173995    0.59600989    0.57479000    0.12390000
opls_524-89    H    0.12783998    0.50513996    0.74402000    0.10460000
