#======================================================================
# Crystal Data Generated By AuToFF
#----------------------------------------------------------------------

data_AuToFF_phase_1

_cell_length_a                         22.5800
_cell_length_b                         22.5800
_cell_length_c                         9.7200
_cell_angle_alpha                      90.00
_cell_angle_beta                       90.00
_cell_angle_gamma                      90.00
_symmetry_space_group_name_H-M_alt     'P 1'
_symmetry_space_group_IT_number        1

loop_
_space_group_symop_operation_xyz
   'x, y, z'

loop_
   _atom_site_label
   _atom_site_type_symbol
   _atom_site_fract_x
   _atom_site_fract_y
   _atom_site_fract_z
   _atom_site_charge
opls_145-0    C    0.40705004    0.33150000    0.67208951    -0.18730000
opls_145-1    C    0.44198007    0.36620018    0.75862963    -0.13940000
opls_145-2    C    0.26955979    0.19351993    0.21156996    -0.12570000
opls_145-3    C    0.59294996    0.66850000    0.67208951    -0.18730000
opls_145-4    C    0.55801993    0.63379982    0.75862963    -0.13940000
opls_145-5    C    0.73044021    0.80648007    0.21156996    -0.12570000
opls_145-6    C    0.16850000    0.90705004    0.17208951    -0.18730000
opls_145-7    C    0.13379982    0.94198007    0.25862963    -0.13940000
opls_145-8    C    0.30648007    0.76955979    0.71156996    -0.12570000
opls_145-9    C    0.83150000    0.09294996    0.17208951    -0.18730000
opls_145-10    C    0.86620018    0.05801993    0.25862963    -0.13940000
opls_145-11    C    0.69351993    0.23044021    0.71156996    -0.12570000
opls_145-12    C    0.59294996    0.33150000    0.32791049    -0.18730000
opls_145-13    C    0.55801993    0.36620018    0.24137037    -0.13940000
opls_145-14    C    0.73044021    0.19351993    0.78843004    -0.12570000
opls_145-15    C    0.40705004    0.66850000    0.32791049    -0.18730000
opls_145-16    C    0.44198007    0.63379982    0.24137037    -0.13940000
opls_145-17    C    0.26955979    0.80648007    0.78843004    -0.12570000
opls_145-18    C    0.83150000    0.90705004    0.82791049    -0.18730000
opls_145-19    C    0.86620018    0.94198007    0.74137037    -0.13940000
opls_145-20    C    0.69351993    0.76955979    0.28843004    -0.12570000
opls_145-21    C    0.16850000    0.09294996    0.82791049    -0.18730000
opls_145-22    C    0.13379982    0.05801993    0.74137037    -0.13940000
opls_145-23    C    0.30648007    0.23044021    0.28843004    -0.12570000
opls_145-24    C    0.09294996    0.16850000    0.82791049    -0.18730000
opls_145-25    C    0.05801993    0.13379982    0.74137037    -0.13940000
opls_145-26    C    0.23044021    0.30648007    0.28843004    -0.12570000
opls_145-27    C    0.90705004    0.83150000    0.82791049    -0.18730000
opls_145-28    C    0.94198007    0.86620018    0.74137037    -0.13940000
opls_145-29    C    0.76955979    0.69351993    0.28843004    -0.12570000
opls_145-30    C    0.33150000    0.59294996    0.32791049    -0.18730000
opls_145-31    C    0.36620018    0.55801993    0.24137037    -0.13940000
opls_145-32    C    0.19351993    0.73044021    0.78843004    -0.12570000
opls_145-33    C    0.66850000    0.40705004    0.32791049    -0.18730000
opls_145-34    C    0.63379982    0.44198007    0.24137037    -0.13940000
opls_145-35    C    0.80648007    0.26955979    0.78843004    -0.12570000
opls_145-36    C    0.90705004    0.16850000    0.17208951    -0.18730000
opls_145-37    C    0.94198007    0.13379982    0.25862963    -0.13940000
opls_145-38    C    0.76955979    0.30648007    0.71156996    -0.12570000
opls_145-39    C    0.09294996    0.83150000    0.17208951    -0.18730000
opls_145-40    C    0.05801993    0.86620018    0.25862963    -0.13940000
opls_145-41    C    0.23044021    0.69351993    0.71156996    -0.12570000
opls_145-42    C    0.66850000    0.59294996    0.67208951    -0.18730000
opls_145-43    C    0.63379982    0.55801993    0.75862963    -0.13940000
opls_145-44    C    0.80648007    0.73044021    0.21156996    -0.12570000
opls_145-45    C    0.33150000    0.40705004    0.67208951    -0.18730000
opls_145-46    C    0.36620018    0.44198007    0.75862963    -0.13940000
opls_145-47    C    0.19351993    0.26955979    0.21156996    -0.12570000
opls_700-48    C    0.42158016    0.42158016    0.80826955    0.07480000
opls_142-49    C    0.32239991    0.32239991    0.40791975    0.11250000
opls_516-50    C    0.96032994    0.96032994    0.59630967    0.15440000
opls_145-51    C    0.64834987    0.64834987    0.62972016    0.20030000
opls_700-52    C    0.78703012    0.78703012    0.17343004    0.04880000
opls_700-53    C    0.57841984    0.57841984    0.80826955    0.07480000
opls_142-54    C    0.67760009    0.67760009    0.40791975    0.11250000
opls_516-55    C    0.03967006    0.03967006    0.59630967    0.15440000
opls_145-56    C    0.35165013    0.35165013    0.62972016    0.20030000
opls_700-57    C    0.21296988    0.21296988    0.17343004    0.04880000
opls_700-58    C    0.07841984    0.92158016    0.30826955    0.07480000
opls_142-59    C    0.17760009    0.82239991    0.90791975    0.11250000
opls_516-60    C    0.53967006    0.46032994    0.09630967    0.15440000
opls_145-61    C    0.85165013    0.14834987    0.12972016    0.20030000
opls_700-62    C    0.71296988    0.28703012    0.67343004    0.04880000
opls_700-63    C    0.92158016    0.07841984    0.30826955    0.07480000
opls_142-64    C    0.82239991    0.17760009    0.90791975    0.11250000
opls_516-65    C    0.46032994    0.53967006    0.09630967    0.15440000
opls_145-66    C    0.14834987    0.85165013    0.12972016    0.20030000
opls_700-67    C    0.28703012    0.71296988    0.67343004    0.04880000
opls_700-68    C    0.57841984    0.42158016    0.19173045    0.07480000
opls_142-69    C    0.67760009    0.32239991    0.59208025    0.11250000
opls_516-70    C    0.03967006    0.96032994    0.40369033    0.15440000
opls_145-71    C    0.35165013    0.64834987    0.37027984    0.20040000
opls_700-72    C    0.21296988    0.78703012    0.82656996    0.04880000
opls_700-73    C    0.42158016    0.57841984    0.19173045    0.07480000
opls_142-74    C    0.32239991    0.67760009    0.59208025    0.11250000
opls_516-75    C    0.96032994    0.03967006    0.40369033    0.15440000
opls_145-76    C    0.64834987    0.35165013    0.37027984    0.20030000
opls_700-77    C    0.78703012    0.21296988    0.82656996    0.04880000
opls_700-78    C    0.92158016    0.92158016    0.69173045    0.07480000
opls_142-79    C    0.82239991    0.82239991    0.09208025    0.11250000
opls_516-80    C    0.46032994    0.46032994    0.90369033    0.15450000
opls_145-81    C    0.14834987    0.14834987    0.87027984    0.20030000
opls_700-82    C    0.28703012    0.28703012    0.32656996    0.04880000
opls_700-83    C    0.07841984    0.07841984    0.69173045    0.07480000
opls_142-84    C    0.17760009    0.17760009    0.09208025    0.11260000
opls_516-85    C    0.53967006    0.53967006    0.90369033    0.15440000
opls_145-86    C    0.85165013    0.85165013    0.87027984    0.20030000
opls_700-87    C    0.71296988    0.71296988    0.32656996    0.04880000
opls_136-88    C    0.00000000    0.92184012    0.50000000    -0.27760000
opls_136-89    C    0.00000000    0.07815988    0.50000000    -0.27760000
opls_136-90    C    0.57815988    0.50000000    0.00000000    -0.27760000
opls_136-91    C    0.42184012    0.50000000    0.00000000    -0.27760000
opls_136-92    C    0.50000000    0.57815988    0.00000000    -0.27760000
opls_136-93    C    0.50000000    0.42184012    0.00000000    -0.27760000
opls_136-94    C    0.92184012    0.00000000    0.50000000    -0.27750000
opls_136-95    C    0.07815988    0.00000000    0.50000000    -0.27760000
opls_136-96    C    0.00000000    0.00000000    0.68651029    -0.27950000
opls_136-97    C    0.50000000    0.50000000    0.18651029    -0.27970000
opls_136-98    C    0.00000000    0.00000000    0.31348971    -0.27970000
opls_136-99    C    0.50000000    0.50000000    0.81348971    -0.27970000
opls_146-100    H    0.42348981    0.28903986    0.63683951    0.10620000
opls_146-101    H    0.48505004    0.34886005    0.78373045    0.09190000
opls_146-102    H    0.28518999    0.15001019    0.18155967    0.10710000
opls_140-103    H    0.96944996    0.89310983    0.44077984    0.12030000
opls_146-104    H    0.57651019    0.71096014    0.63683951    0.10630000
opls_146-105    H    0.51494996    0.65113995    0.78373045    0.09190000
opls_146-106    H    0.71481001    0.84998981    0.18155967    0.10710000
opls_140-107    H    0.03055004    0.10689017    0.44077984    0.12030000
opls_146-108    H    0.21096014    0.92348981    0.13683951    0.10620000
opls_146-109    H    0.15113995    0.98505004    0.28373045    0.09190000
opls_146-110    H    0.34998981    0.78518999    0.68155967    0.10710000
opls_140-111    H    0.60689017    0.46944996    0.94077984    0.12030000
opls_146-112    H    0.78903986    0.07651019    0.13683951    0.10620000
opls_146-113    H    0.84886005    0.01494996    0.28373045    0.09190000
opls_146-114    H    0.65001019    0.21481001    0.68155967    0.10710000
opls_140-115    H    0.39310983    0.53055004    0.94077984    0.12040000
opls_146-116    H    0.57651019    0.28903986    0.36316049    0.10620000
opls_146-117    H    0.51494996    0.34886005    0.21626955    0.09190000
opls_146-118    H    0.71481001    0.15001019    0.81844033    0.10710000
opls_140-119    H    0.03055004    0.89310983    0.55922016    0.12030000
opls_146-120    H    0.42348981    0.71096014    0.36316049    0.10620000
opls_146-121    H    0.48505004    0.65113995    0.21626955    0.09190000
opls_146-122    H    0.28518999    0.84998981    0.81844033    0.10710000
opls_140-123    H    0.96944996    0.10689017    0.55922016    0.12030000
opls_146-124    H    0.78903986    0.92348981    0.86316049    0.10620000
opls_146-125    H    0.84886005    0.98505004    0.71626955    0.09190000
opls_146-126    H    0.65001019    0.78518999    0.31844033    0.10710000
opls_140-127    H    0.39310983    0.46944996    0.05922016    0.12030000
opls_146-128    H    0.21096014    0.07651019    0.86316049    0.10620000
opls_146-129    H    0.15113995    0.01494996    0.71626955    0.09190000
opls_146-130    H    0.34998981    0.21481001    0.31844033    0.10710000
opls_140-131    H    0.60689017    0.53055004    0.05922016    0.12030000
opls_146-132    H    0.07651019    0.21096014    0.86316049    0.10630000
opls_146-133    H    0.01494996    0.15113995    0.71626955    0.09190000
opls_146-134    H    0.21481001    0.34998981    0.31844033    0.10710000
opls_140-135    H    0.53055004    0.60689017    0.05922016    0.12030000
opls_146-136    H    0.92348981    0.78903986    0.86316049    0.10620000
opls_146-137    H    0.98505004    0.84886005    0.71626955    0.09190000
opls_146-138    H    0.78518999    0.65001019    0.31844033    0.10710000
opls_140-139    H    0.46944996    0.39310983    0.05922016    0.12030000
opls_146-140    H    0.28903986    0.57651019    0.36316049    0.10620000
opls_146-141    H    0.34886005    0.51494996    0.21626955    0.09190000
opls_146-142    H    0.15001019    0.71481001    0.81844033    0.10710000
opls_140-143    H    0.89310983    0.03055004    0.55922016    0.12030000
opls_146-144    H    0.71096014    0.42348981    0.36316049    0.10620000
opls_146-145    H    0.65113995    0.48505004    0.21626955    0.09190000
opls_146-146    H    0.84998981    0.28518999    0.81844033    0.10710000
opls_140-147    H    0.10689017    0.96944996    0.55922016    0.12030000
opls_146-148    H    0.92348981    0.21096014    0.13683951    0.10620000
opls_146-149    H    0.98505004    0.15113995    0.28373045    0.09190000
opls_146-150    H    0.78518999    0.34998981    0.68155967    0.10710000
opls_140-151    H    0.46944996    0.60689017    0.94077984    0.12040000
opls_146-152    H    0.07651019    0.78903986    0.13683951    0.10620000
opls_146-153    H    0.01494996    0.84886005    0.28373045    0.09190000
opls_146-154    H    0.21481001    0.65001019    0.68155967    0.10710000
opls_140-155    H    0.53055004    0.39310983    0.94077984    0.12030000
opls_146-156    H    0.71096014    0.57651019    0.63683951    0.10620000
opls_146-157    H    0.65113995    0.51494996    0.78373045    0.09190000
opls_146-158    H    0.84998981    0.71481001    0.18155967    0.10710000
opls_140-159    H    0.10689017    0.03055004    0.44077984    0.12030000
opls_146-160    H    0.28903986    0.42348981    0.63683951    0.10620000
opls_146-161    H    0.34886005    0.48505004    0.78373045    0.09190000
opls_146-162    H    0.15001019    0.28518999    0.18155967    0.10710000
opls_140-163    H    0.89310983    0.96944996    0.44077984    0.12030000
opls_144-164    H    0.35312002    0.35312002    0.36025000    0.09250000
opls_144-165    H    0.64687998    0.64687998    0.36025000    0.09250000
opls_144-166    H    0.14687998    0.85312002    0.86025000    0.09250000
opls_144-167    H    0.85312002    0.14687998    0.86025000    0.09250000
opls_144-168    H    0.64687998    0.35312002    0.63975000    0.09250000
opls_144-169    H    0.35312002    0.64687998    0.63975000    0.09250000
opls_144-170    H    0.85312002    0.85312002    0.13975000    0.09250000
opls_144-171    H    0.14687998    0.14687998    0.13975000    0.09250000
opls_140-172    H    0.02810983    0.97189017    0.75437037    0.10570000
opls_140-173    H    0.97189017    0.02810983    0.75437037    0.10570000
opls_140-174    H    0.52810983    0.52810983    0.25437037    0.10570000
opls_140-175    H    0.47189017    0.47189017    0.25437037    0.10570000
opls_140-176    H    0.97189017    0.97189017    0.24562963    0.10570000
opls_140-177    H    0.02810983    0.02810983    0.24562963    0.10580000
opls_140-178    H    0.47189017    0.52810983    0.74562963    0.10570000
opls_140-179    H    0.52810983    0.47189017    0.74562963    0.10570000
opls_750-180    N    0.31808990    0.31808990    0.54591975    -0.31790000
opls_750-181    N    0.68191010    0.68191010    0.54591975    -0.31790000
opls_750-182    N    0.18191010    0.81808990    0.04591975    -0.31790000
opls_750-183    N    0.81808990    0.18191010    0.04591975    -0.31790000
opls_750-184    N    0.68191010    0.31808990    0.45408025    -0.31790000
opls_750-185    N    0.31808990    0.68191010    0.45408025    -0.31780000
opls_750-186    N    0.81808990    0.81808990    0.95408025    -0.31790000
opls_750-187    N    0.18191010    0.18191010    0.95408025    -0.31790000
