#======================================================================
# Crystal Data Generated By AuToFF
#----------------------------------------------------------------------

data_AuToFF_phase_1

_cell_length_a                         51.6000
_cell_length_b                         53.0000
_cell_length_c                         3.8400
_cell_angle_alpha                      90.00
_cell_angle_beta                       72.00
_cell_angle_gamma                      90.00
_symmetry_space_group_name_H-M_alt     'P 1'
_symmetry_space_group_IT_number        1

loop_
_space_group_symop_operation_xyz
   'x, y, z'

loop_
   _atom_site_label
   _atom_site_type_symbol
   _atom_site_fract_x
   _atom_site_fract_y
   _atom_site_fract_z
   _atom_site_charge
opls_700-0    C    0.97182001    0.52342000    0.49819006    0.03160000
opls_700-1    C    0.47182001    0.02342000    0.49819006    0.03170000
opls_700-2    C    0.02817999    0.52342000    0.50180994    0.03160000
opls_700-3    C    0.52817999    0.02342000    0.50180994    0.03170000
opls_700-4    C    0.02817999    0.47658000    0.50180994    0.03170000
opls_700-5    C    0.52817999    0.97658000    0.50180994    0.03170000
opls_700-6    C    0.97182001    0.47658000    0.49819006    0.03170000
opls_700-7    C    0.47182001    0.97658000    0.49819006    0.03170000
opls_145-8    C    0.01359999    0.54581000    0.49874044    -0.12590000
opls_145-9    C    0.51359999    0.04580000    0.49874044    -0.12590000
opls_145-10    C    0.98640001    0.54581000    0.50125956    -0.12590000
opls_145-11    C    0.48640001    0.04580000    0.50125956    -0.12590000
opls_145-12    C    0.98640001    0.45420000    0.50125956    -0.12580000
opls_145-13    C    0.48640001    0.95420000    0.50125956    -0.12590000
opls_145-14    C    0.01359999    0.45420000    0.49874044    -0.12590000
opls_145-15    C    0.51359999    0.95420000    0.49874044    -0.12590000
opls_700-16    C    0.94367993    0.47631000    0.50182089    0.01660000
opls_700-17    C    0.44367993    0.97631000    0.50182089    0.01660000
opls_700-18    C    0.05631988    0.47631000    0.49817911    0.01660000
opls_700-19    C    0.55631988    0.97631000    0.49817911    0.01660000
opls_700-20    C    0.05631988    0.52369000    0.49817911    0.01660000
opls_700-21    C    0.55631988    0.02369000    0.49817911    0.01660000
opls_700-22    C    0.94367993    0.52369000    0.50182089    0.01660000
opls_700-23    C    0.44367993    0.02369000    0.50182089    0.01660000
opls_700-24    C    0.07430006    0.54750000    0.47638867    0.06180000
opls_700-25    C    0.57430006    0.04750000    0.47638867    0.06180000
opls_700-26    C    0.92570001    0.54750000    0.52360859    0.06180000
opls_700-27    C    0.42570001    0.04750000    0.52360859    0.06180000
opls_700-28    C    0.92570001    0.45250000    0.52360859    0.06180000
opls_700-29    C    0.42570001    0.95250000    0.52360859    0.06180000
opls_700-30    C    0.07430006    0.45250000    0.47638867    0.06180000
opls_700-31    C    0.57430006    0.95250000    0.47638867    0.06180000
opls_145-32    C    0.89822992    0.45233000    0.75243014    -0.09880000
opls_145-33    C    0.39822992    0.95233000    0.75243014    -0.09880000
opls_145-34    C    0.10176995    0.45233000    0.24755891    -0.09880000
opls_145-35    C    0.60176995    0.95233000    0.24755891    -0.09880000
opls_145-36    C    0.10176995    0.54767000    0.24755891    -0.09880000
opls_145-37    C    0.60176995    0.04767000    0.24755891    -0.09880000
opls_145-38    C    0.89822992    0.54767000    0.75243014    -0.09880000
opls_145-39    C    0.39822992    0.04767000    0.75243014    -0.09880000
opls_145-40    C    0.88035989    0.43184000    0.75818031    -0.15870000
opls_145-41    C    0.38035989    0.93184000    0.75818031    -0.15860000
opls_145-42    C    0.11963991    0.43184000    0.24181969    -0.15870000
opls_145-43    C    0.61963991    0.93184000    0.24181969    -0.15870000
opls_145-44    C    0.11963991    0.56816000    0.24181969    -0.15870000
opls_145-45    C    0.61963991    0.06816000    0.24181969    -0.15860000
opls_145-46    C    0.88035989    0.56816000    0.75818031    -0.15870000
opls_145-47    C    0.38035989    0.06816000    0.75818031    -0.15870000
opls_145-48    C    0.88893998    0.41019000    0.54159844    0.19180000
opls_145-49    C    0.38893998    0.91019000    0.54159844    0.19180000
opls_145-50    C    0.11105988    0.41019000    0.45839061    0.19180000
opls_145-51    C    0.61105988    0.91019000    0.45839061    0.19180000
opls_145-52    C    0.11105988    0.58981000    0.45839061    0.19190000
opls_145-53    C    0.61105988    0.08981000    0.45839061    0.19180000
opls_145-54    C    0.88893998    0.58981000    0.54159844    0.19180000
opls_145-55    C    0.38893998    0.08981000    0.54159844    0.19180000
opls_145-56    C    0.08362998    0.59003000    0.68656046    -0.14820000
opls_145-57    C    0.58362998    0.09003000    0.68656046    -0.14820000
opls_145-58    C    0.91637002    0.59003000    0.31343954    -0.14820000
opls_145-59    C    0.41637002    0.09003000    0.31343954    -0.14820000
opls_145-60    C    0.91637002    0.40997000    0.31343954    -0.14820000
opls_145-61    C    0.41637002    0.90997000    0.31343954    -0.14820000
opls_145-62    C    0.08362998    0.40997000    0.68656046    -0.14820000
opls_145-63    C    0.58362998    0.90997000    0.68656046    -0.14820000
opls_145-64    C    0.93417001    0.43075000    0.30267849    -0.13670000
opls_145-65    C    0.43417001    0.93075000    0.30267849    -0.13670000
opls_145-66    C    0.06583005    0.43075000    0.69731877    -0.13670000
opls_145-67    C    0.56583005    0.93075000    0.69731877    -0.13670000
opls_145-68    C    0.06583005    0.56925000    0.69731877    -0.13670000
opls_145-69    C    0.56583005    0.06925000    0.69731877    -0.13670000
opls_145-70    C    0.93417001    0.56925000    0.30267849    -0.13670000
opls_145-71    C    0.43417001    0.06925000    0.30267849    -0.13670000
opls_567-72    C    0.18278002    0.68598000    0.51423032    -0.00110000
opls_567-73    C    0.68278002    0.18598000    0.51423032    -0.00110000
opls_567-74    C    0.81721998    0.68598000    0.48576968    -0.00110000
opls_567-75    C    0.31721998    0.18598000    0.48576968    -0.00110000
opls_567-76    C    0.81721998    0.31402000    0.48576968    -0.00110000
opls_567-77    C    0.31721998    0.81402000    0.48576968    -0.00110000
opls_567-78    C    0.18278002    0.31402000    0.51423032    -0.00110000
opls_567-79    C    0.68278002    0.81402000    0.51423032    -0.00110000
opls_716-80    C    0.15824991    0.69700000    0.52453957    -0.16230000
opls_716-81    C    0.65824991    0.19700000    0.52453957    -0.16230000
opls_716-82    C    0.84174989    0.69700000    0.47546043    -0.16230000
opls_716-83    C    0.34174989    0.19700000    0.47546043    -0.16230000
opls_716-84    C    0.84174989    0.30300000    0.47546043    -0.16230000
opls_716-85    C    0.34174989    0.80300000    0.47546043    -0.16230000
opls_716-86    C    0.15824991    0.30300000    0.52453957    -0.16230000
opls_716-87    C    0.65824991    0.80300000    0.52453957    -0.16230000
opls_716-88    C    0.13784993    0.67979000    0.53541837    -0.16170000
opls_716-89    C    0.63784993    0.17979000    0.53541837    -0.16170000
opls_716-90    C    0.86214994    0.67979000    0.46457890    -0.16170000
opls_716-91    C    0.36214994    0.17979000    0.46457890    -0.16170000
opls_716-92    C    0.86214994    0.32021000    0.46457890    -0.16170000
opls_716-93    C    0.36214994    0.82021000    0.46457890    -0.16170000
opls_716-94    C    0.13784993    0.32021000    0.53541837    -0.16170000
opls_716-95    C    0.63784993    0.82021000    0.53541837    -0.16170000
opls_567-96    C    0.20757990    0.70211000    0.51131964    -0.00110000
opls_567-97    C    0.70757990    0.20211000    0.51131964    -0.00110000
opls_567-98    C    0.79241991    0.70211000    0.48868036    -0.06220000
opls_567-99    C    0.29241991    0.20211000    0.48868036    -0.06220000
opls_567-100    C    0.79241991    0.29789000    0.48868036    -0.06220000
opls_567-101    C    0.29241991    0.79789000    0.48868036    -0.06220000
opls_567-102    C    0.20757990    0.29789000    0.51131964    -0.00110000
opls_567-103    C    0.70757990    0.79789000    0.51131964    -0.00110000
opls_716-104    C    0.23178000    0.69447000    0.56085059    -0.18810000
opls_716-105    C    0.73178988    0.19447000    0.56085059    -0.18810000
opls_700-106    C    0.76820993    0.69447000    0.43914941    -0.07810000
opls_700-107    C    0.26820993    0.19447000    0.43914941    -0.07810000
opls_700-108    C    0.76820993    0.30553000    0.43914941    -0.07810000
opls_700-109    C    0.26820993    0.80553000    0.43914941    -0.07810000
opls_716-110    C    0.23178000    0.30553000    0.56085059    -0.18810000
opls_716-111    C    0.73178988    0.80553000    0.56085059    -0.18810000
opls_716-112    C    0.25006988    0.71323000    0.55797002    -0.16300000
opls_716-113    C    0.75006988    0.21323000    0.55797002    -0.18750000
opls_700-114    C    0.74992998    0.71323000    0.44201902    -0.07940000
opls_700-115    C    0.24992998    0.21323000    0.44201902    -0.07940000
opls_700-116    C    0.74992998    0.28677000    0.44201902    -0.07940000
opls_700-117    C    0.24992998    0.78677000    0.44201902    -0.07940000
opls_716-118    C    0.25006988    0.28677000    0.55797002    -0.16300000
opls_716-119    C    0.75006988    0.78677000    0.55797002    -0.18750000
opls_567-120    C    0.24196003    0.73762000    0.50475074    -0.00180000
opls_567-121    C    0.74196003    0.23762000    0.50475074    -0.00180000
opls_567-122    C    0.75803997    0.73762000    0.49524926    -0.06010000
opls_567-123    C    0.25803997    0.23762000    0.49524926    -0.06010000
opls_567-124    C    0.75803997    0.26238000    0.49524926    -0.06010000
opls_567-125    C    0.25803997    0.76238000    0.49524926    -0.06010000
opls_567-126    C    0.24196003    0.26238000    0.50475074    -0.00180000
opls_567-127    C    0.74196003    0.76238000    0.50475074    -0.00180000
opls_142-128    C    0.87478993    0.36638000    0.43899060    0.02740000
opls_142-129    C    0.37478993    0.86638000    0.43899060    0.02740000
opls_142-130    C    0.12520993    0.36638000    0.56099845    0.02740000
opls_142-131    C    0.62520993    0.86638000    0.56099845    0.02740000
opls_142-132    C    0.12520993    0.63362000    0.56099845    0.02740000
opls_142-133    C    0.62520993    0.13362000    0.56099845    0.02740000
opls_142-134    C    0.87478993    0.63362000    0.43899060    0.02740000
opls_142-135    C    0.37478993    0.13362000    0.43899060    0.02740000
opls_567-136    C    0.85403991    0.34519000    0.47313023    -0.00440000
opls_567-137    C    0.35403991    0.84520000    0.47313023    -0.00440000
opls_567-138    C    0.14595989    0.34519000    0.52686977    -0.00440000
opls_567-139    C    0.64595989    0.84520000    0.52686977    -0.00440000
opls_567-140    C    0.14595989    0.65481000    0.52686977    -0.00440000
opls_567-141    C    0.64595989    0.15481000    0.52686977    -0.00440000
opls_567-142    C    0.85403991    0.65481000    0.47313023    -0.00440000
opls_567-143    C    0.35403991    0.15481000    0.47313023    -0.00440000
opls_234-144    C    0.72740003    0.70096000    0.35288029    0.41580000
opls_234-145    C    0.22740003    0.20096000    0.35288029    0.41580000
opls_234-146    C    0.72740003    0.29904000    0.35288029    0.41580000
opls_234-147    C    0.22740003    0.79904000    0.35288029    0.41580000
opls_234-148    C    0.75678993    0.67120000    0.34828015    0.41090000
opls_234-149    C    0.25678993    0.17120000    0.34828015    0.41100000
opls_234-150    C    0.75678993    0.32880000    0.34828015    0.41090000
opls_234-151    C    0.25678993    0.82880000    0.34828015    0.41090000
opls_245-152    C    0.71639009    0.65790000    0.15357908    -0.05310000
opls_245-153    C    0.21639009    0.15790000    0.15357908    -0.05310000
opls_245-154    C    0.71639009    0.34210000    0.15357908    -0.05310000
opls_245-155    C    0.21639009    0.84210000    0.15357908    -0.05310000
opls_136-156    C    0.69534997    0.64392000    0.45974874    -0.20640000
opls_136-157    C    0.19534997    0.14392000    0.45974874    -0.20630000
opls_136-158    C    0.69534997    0.35608000    0.45974874    -0.20640000
opls_136-159    C    0.19534997    0.85608000    0.45974874    -0.20640000
opls_136-160    C    0.67794000    0.62426000    0.34113076    -0.12910000
opls_136-161    C    0.17794000    0.12426000    0.34113076    -0.12920000
opls_136-162    C    0.67794000    0.37574000    0.34113076    -0.12920000
opls_136-163    C    0.17794000    0.87574000    0.34113076    -0.12920000
opls_135-164    C    0.69383999    0.59984000    0.20723099    -0.41200000
opls_135-165    C    0.19383999    0.09984000    0.20723099    -0.41190000
opls_135-166    C    0.69383999    0.40016000    0.20723099    -0.41200000
opls_135-167    C    0.19383999    0.90016000    0.20723099    -0.41200000
opls_700-168    C    0.51411999    0.00000000    0.50216042    -0.02870000
opls_145-169    C    0.56900988    0.00000000    0.50329951    -0.13710000
opls_700-170    C    0.01411999    0.50000000    0.50216042    -0.02870000
opls_145-171    C    0.06900988    0.50000000    0.50329951    -0.13710000
opls_700-172    C    0.48588001    0.00000000    0.49783958    -0.02870000
opls_145-173    C    0.43098999    0.00000000    0.49668954    -0.13780000
opls_700-174    C    0.98588001    0.50000000    0.49783958    -0.02870000
opls_145-175    C    0.93098999    0.50000000    0.49668954    -0.13710000
opls_146-176    H    0.02302991    0.56397000    0.49224000    0.11120000
opls_146-177    H    0.52302991    0.06397000    0.49224000    0.08740000
opls_146-178    H    0.97696990    0.56397000    0.50776000    0.11120000
opls_146-179    H    0.47696990    0.06397000    0.50776000    0.08740000
opls_146-180    H    0.97696990    0.43603000    0.50776000    0.08740000
opls_146-181    H    0.47696990    0.93603000    0.50776000    0.08740000
opls_146-182    H    0.02302991    0.43603000    0.49224000    0.08740000
opls_146-183    H    0.52302991    0.93603000    0.49224000    0.08740000
opls_146-184    H    0.89044982    0.46819000    0.93200002    0.11020000
opls_146-185    H    0.39044982    0.96819000    0.93200002    0.11020000
opls_146-186    H    0.10954998    0.46819000    0.06799998    0.11230000
opls_146-187    H    0.60954998    0.96819000    0.06799998    0.11220000
opls_146-188    H    0.10954998    0.53181000    0.06799998    0.11220000
opls_146-189    H    0.60954998    0.03181000    0.06799998    0.11220000
opls_146-190    H    0.89044982    0.53181000    0.93200002    0.11020000
opls_146-191    H    0.39044982    0.03181000    0.93200002    0.11030000
opls_146-192    H    0.85956001    0.43259000    0.93792818    0.11220000
opls_146-193    H    0.35956001    0.93259000    0.93792818    0.11230000
opls_146-194    H    0.14044006    0.43259000    0.06206908    0.11220000
opls_146-195    H    0.64044006    0.93259000    0.06206908    0.11220000
opls_146-196    H    0.14044006    0.56741000    0.06206908    0.11220000
opls_146-197    H    0.64044006    0.06741000    0.06206908    0.11220000
opls_146-198    H    0.85956001    0.56741000    0.93792818    0.11220000
opls_146-199    H    0.35956001    0.06741000    0.93792818    0.11220000
opls_146-200    H    0.07608987    0.60572000    0.86927926    0.11440000
opls_146-201    H    0.57608987    0.10572000    0.86927926    0.11430000
opls_146-202    H    0.92390994    0.60572000    0.13072074    0.11430000
opls_146-203    H    0.42390994    0.10572000    0.13072074    0.11430000
opls_146-204    H    0.92390994    0.39428000    0.13072074    0.11430000
opls_146-205    H    0.42390994    0.89428000    0.13072074    0.11430000
opls_146-206    H    0.07608987    0.39428000    0.86927926    0.11430000
opls_146-207    H    0.57608987    0.89428000    0.86927926    0.11430000
opls_146-208    H    0.04562997    0.57002000    0.88932000    0.11700000
opls_146-209    H    0.54562997    0.07002000    0.88932000    0.11700000
opls_146-210    H    0.95437003    0.57002000    0.11068000    0.11700000
opls_146-211    H    0.45437003    0.07002000    0.11068000    0.11700000
opls_146-212    H    0.95437003    0.42998000    0.11068000    0.11710000
opls_146-213    H    0.45437003    0.92998000    0.11068000    0.11700000
opls_146-214    H    0.04562997    0.42998000    0.88932000    0.11700000
opls_146-215    H    0.54562997    0.92998000    0.88932000    0.11700000
opls_570-216    H    0.11740989    0.68546000    0.54921880    0.11160000
opls_570-217    H    0.61740989    0.18546000    0.54921880    0.11160000
opls_570-218    H    0.88258998    0.68546000    0.45077846    0.11160000
opls_570-219    H    0.38258997    0.18546000    0.45077025    0.11160000
opls_570-220    H    0.88258998    0.31454000    0.45077846    0.11160000
opls_570-221    H    0.38258997    0.81454000    0.45077025    0.11160000
opls_570-222    H    0.11740989    0.31454000    0.54921880    0.11160000
opls_570-223    H    0.61740989    0.81454000    0.54921880    0.11160000
opls_570-224    H    0.65518998    0.21723000    0.52814028    0.10990000
opls_570-225    H    0.15518998    0.71723000    0.52814028    0.11000000
opls_570-226    H    0.34481002    0.21723000    0.47185972    0.10990000
opls_570-227    H    0.84481002    0.71723000    0.47185972    0.11000000
opls_570-228    H    0.34481002    0.78277000    0.47185972    0.10990000
opls_570-229    H    0.84481002    0.28277000    0.47185972    0.10990000
opls_570-230    H    0.65518998    0.78277000    0.52814028    0.10990000
opls_570-231    H    0.15518998    0.28277000    0.52814028    0.10990000
opls_144-232    H    0.89590991    0.36068000    0.33541070    0.11550000
opls_144-233    H    0.39590991    0.86068000    0.33541070    0.11550000
opls_144-234    H    0.10408989    0.36068000    0.66458930    0.11550000
opls_144-235    H    0.60408989    0.86068000    0.66458930    0.11550000
opls_144-236    H    0.10408989    0.63932000    0.66458930    0.11550000
opls_144-237    H    0.60408989    0.13932000    0.66458930    0.11550000
opls_144-238    H    0.89590991    0.63932000    0.33541070    0.11550000
opls_144-239    H    0.39590991    0.13932000    0.33541070    0.11550000
opls_140-240    H    0.70566997    0.66882000    0.99404993    0.09750000
opls_140-241    H    0.20566997    0.16882000    0.99404993    0.09750000
opls_140-242    H    0.70566997    0.33118000    0.99404993    0.09750000
opls_140-243    H    0.20566997    0.83118000    0.99404993    0.09750000
opls_140-244    H    0.73082005    0.64422000    0.97227044    0.06500000
opls_140-245    H    0.23082005    0.14422000    0.97227044    0.06500000
opls_140-246    H    0.73082005    0.35578000    0.97227044    0.06500000
opls_140-247    H    0.23082005    0.85578000    0.97227044    0.06500000
opls_140-248    H    0.70664990    0.63393000    0.61761033    0.09970000
opls_140-249    H    0.20664990    0.13393000    0.61761033    0.09970000
opls_140-250    H    0.70664990    0.36607000    0.61761033    0.09970000
opls_140-251    H    0.20664990    0.86607000    0.61761033    0.09970000
opls_140-252    H    0.68145992    0.65834000    0.63161887    0.11340000
opls_140-253    H    0.18145992    0.15834000    0.63161887    0.11340000
opls_140-254    H    0.68145992    0.34166000    0.63161887    0.11340000
opls_140-255    H    0.18145992    0.84166000    0.63161887    0.11350000
opls_140-256    H    0.66007987    0.61942000    0.58221935    0.12610000
opls_140-257    H    0.16007987    0.11942000    0.58221935    0.12610000
opls_140-258    H    0.66007987    0.38058000    0.58221935    0.12610000
opls_140-259    H    0.16007987    0.88058000    0.58221935    0.12610000
opls_140-260    H    0.66885003    0.63219000    0.13871076    0.10780000
opls_140-261    H    0.16885003    0.13219000    0.13871076    0.10780000
opls_140-262    H    0.66885003    0.36781000    0.13871076    0.10780000
opls_140-263    H    0.16885003    0.86781000    0.13871076    0.10780000
opls_140-264    H    0.71329001    0.60320000    0.98636934    0.16200000
opls_140-265    H    0.21329001    0.10320000    0.98636934    0.16200000
opls_140-266    H    0.71329001    0.39681000    0.98636934    0.16200000
opls_140-267    H    0.21329001    0.89680000    0.98636934    0.16200000
opls_140-268    H    0.69901992    0.59032000    0.43456022    0.16210000
opls_140-269    H    0.19901992    0.09032000    0.43456022    0.16210000
opls_140-270    H    0.69901992    0.40968000    0.43456022    0.16210000
opls_140-271    H    0.19901992    0.90968000    0.43456022    0.16210000
opls_140-272    H    0.68122008    0.58660000    0.10370859    0.15990000
opls_140-273    H    0.18122008    0.08660000    0.10370859    0.16000000
opls_140-274    H    0.68122008    0.41340000    0.10370859    0.16000000
opls_140-275    H    0.18122008    0.91340000    0.10370859    0.15990000
opls_146-276    H    0.58965996    0.00000000    0.51667004    0.11200000
opls_146-277    H    0.08965996    0.50000000    0.51667004    0.11210000
opls_146-278    H    0.41032996    0.00000000    0.48332996    0.11170000
opls_146-279    H    0.91034004    0.50000000    0.48332996    0.11200000
opls_570-280    H    0.23531993    0.32532000    0.59873058    0.11450000
opls_570-281    H    0.26945993    0.29134000    0.59571037    0.11140000
opls_570-282    H    0.23531993    0.67468000    0.59873058    0.11440000
opls_570-283    H    0.26945993    0.70866000    0.59571037    0.11140000
opls_570-284    H    0.73531993    0.17468000    0.59873058    0.11160000
opls_570-285    H    0.76945993    0.20866000    0.59571037    0.11140000
opls_570-286    H    0.73531993    0.82532000    0.59873058    0.11160000
opls_570-287    H    0.76945993    0.79134000    0.59571037    0.11140000
opls_750-288    N    0.36924992    0.11023000    0.55384906    -0.25280000
opls_750-289    N    0.86924992    0.61023000    0.55384085    -0.25270000
opls_750-290    N    0.63074988    0.11023000    0.44615094    -0.25280000
opls_750-291    N    0.13074988    0.61023000    0.44615094    -0.25280000
opls_750-292    N    0.63074988    0.88977000    0.44615094    -0.25280000
opls_750-293    N    0.13074988    0.38977000    0.44615094    -0.25280000
opls_750-294    N    0.36924992    0.88977000    0.55384906    -0.25280000
opls_750-295    N    0.86924992    0.38977000    0.55384085    -0.25270000
opls_542-296    N    0.73196006    0.67563000    0.30451033    -0.16410000
opls_542-297    N    0.23196006    0.17563000    0.30451033    -0.16410000
opls_542-298    N    0.73196006    0.32437000    0.30451033    -0.16410000
opls_542-299    N    0.23196006    0.82437000    0.30451033    -0.16410000
opls_633-300    S    0.18008003    0.65299000    0.50860884    0.09560000
opls_633-301    S    0.68008003    0.15299000    0.50860884    0.09570000
opls_633-302    S    0.81992003    0.65299000    0.49138842    0.09560000
opls_633-303    S    0.31992003    0.15299000    0.49138842    0.09560000
opls_633-304    S    0.81992003    0.34701000    0.49138842    0.09560000
opls_633-305    S    0.31992003    0.84701000    0.49138842    0.09560000
opls_633-306    S    0.18008003    0.34701000    0.50860884    0.09560000
opls_633-307    S    0.68008003    0.84701000    0.50860884    0.09560000
opls_633-308    S    0.20919000    0.73503000    0.45939004    0.08600000
opls_633-309    S    0.70919000    0.23503000    0.45939004    0.08600000
opls_633-310    S    0.79081000    0.73503000    0.54060996    0.08600000
opls_633-311    S    0.29081000    0.23503000    0.54060996    0.08600000
opls_633-312    S    0.79081000    0.26497000    0.54060996    0.08600000
opls_633-313    S    0.29081000    0.76497000    0.54060996    0.08600000
opls_633-314    S    0.20919000    0.26497000    0.45939004    0.08600000
opls_633-315    S    0.70919000    0.76497000    0.45939004    0.08600000
opls_236-316    O    0.70790996    0.71131000    0.30185977    -0.38540000
opls_236-317    O    0.20790996    0.21131000    0.30185977    -0.38550000
opls_236-318    O    0.70790996    0.28869000    0.30185977    -0.38550000
opls_236-319    O    0.20790996    0.78869000    0.30185977    -0.38550000
opls_236-320    O    0.76731990    0.65049000    0.31170901    -0.38540000
opls_236-321    O    0.26731990    0.15049000    0.31170901    -0.38540000
opls_236-322    O    0.76731990    0.34951000    0.31170901    -0.38550000
opls_236-323    O    0.26731990    0.84951000    0.31170901    -0.38550000
