#======================================================================
# Crystal Data Generated By AuToFF
#----------------------------------------------------------------------

data_AuToFF_phase_1

_cell_length_a                         43.6198
_cell_length_b                         43.6198
_cell_length_c                         6.5346
_cell_angle_alpha                      90.00
_cell_angle_beta                       90.00
_cell_angle_gamma                      90.00
_symmetry_space_group_name_H-M_alt     'P 1'
_symmetry_space_group_IT_number        1

loop_
_space_group_symop_operation_xyz
   'x, y, z'

loop_
   _atom_site_label
   _atom_site_type_symbol
   _atom_site_fract_x
   _atom_site_fract_y
   _atom_site_fract_z
   _atom_site_charge
opls_145-0    C    0.47457989    0.04916001    0.90288924    -0.12880000
opls_145-1    C    0.47628004    0.07557990    0.02300064    -0.16540000
opls_145-2    C    0.50209011    0.08107992    0.14500046    0.19860000
opls_145-3    C    0.52584010    0.05980999    0.14663943    -0.18030000
opls_145-4    C    0.52429997    0.03336994    0.02691060    -0.12890000
opls_700-5    C    0.49937001    0.02826010    0.89380069    0.04590000
opls_142-6    C    0.48783993    0.13130001    0.27600924    0.07120000
opls_145-7    C    0.47592011    0.18281010    0.41825054    -0.12280000
opls_145-8    C    0.47797995    0.20466990    0.57403973    -0.11570000
opls_700-9    C    0.49435004    0.19804011    0.75273926    0.12460000
opls_145-10    C    0.50859999    0.16955992    0.77643926    -0.11770000
opls_145-11    C    0.50664010    0.14772993    0.62085973    -0.12630000
opls_700-12    C    0.49036011    0.15424990    0.44010957    0.06200000
opls_261-13    C    0.49874002    0.23910999    0.04637927    -0.04570000
opls_261-14    C    0.49664006    0.22044003    0.91208949    -0.08620000
opls_701-15    C    0.50000000    0.00000000    0.75000000    0.00110000
opls_145-16    C    0.02542011    0.45083999    0.40288924    -0.12880000
opls_145-17    C    0.02371996    0.42442010    0.52300064    -0.16540000
opls_145-18    C    0.99790989    0.41892008    0.64500046    0.19860000
opls_145-19    C    0.97415990    0.44019001    0.64663943    -0.18030000
opls_145-20    C    0.97570003    0.46663006    0.52691060    -0.12890000
opls_700-21    C    0.00062999    0.47173990    0.39380069    0.04590000
opls_142-22    C    0.01216007    0.36869999    0.77600924    0.07120000
opls_145-23    C    0.02407989    0.31718990    0.91825054    -0.12290000
opls_145-24    C    0.02202005    0.29533010    0.07403973    -0.11570000
opls_700-25    C    0.00564996    0.30195989    0.25273926    0.12460000
opls_145-26    C    0.99140001    0.33044008    0.27643926    -0.11770000
opls_145-27    C    0.99335990    0.35227007    0.12085973    -0.12630000
opls_700-28    C    0.00963989    0.34575010    0.94010957    0.06200000
opls_261-29    C    0.00125998    0.26089001    0.54637927    -0.04570000
opls_261-30    C    0.00335994    0.27955997    0.41208949    -0.08620000
opls_701-31    C    0.00000000    0.50000000    0.25000000    0.00110000
opls_145-32    C    0.95083999    0.97457989    0.15288924    -0.12870000
opls_145-33    C    0.92442010    0.97628004    0.27300064    -0.16540000
opls_145-34    C    0.91892008    0.00209011    0.39500046    0.19860000
opls_145-35    C    0.94019001    0.02584010    0.39663943    -0.18030000
opls_145-36    C    0.96663006    0.02429997    0.27691060    -0.12890000
opls_700-37    C    0.97173990    0.99937001    0.14380069    0.04590000
opls_142-38    C    0.86869999    0.98783993    0.52600924    0.07120000
opls_145-39    C    0.81718990    0.97592011    0.66825054    -0.12280000
opls_145-40    C    0.79533010    0.97797995    0.82403973    -0.11570000
opls_700-41    C    0.80195989    0.99435004    0.00273926    0.12460000
opls_145-42    C    0.83044008    0.00859999    0.02643926    -0.11770000
opls_145-43    C    0.85227007    0.00664010    0.87085973    -0.12630000
opls_700-44    C    0.84575010    0.99036011    0.69010957    0.06200000
opls_261-45    C    0.76089001    0.99874002    0.29637927    -0.04570000
opls_261-46    C    0.77955997    0.99664006    0.16208949    -0.08620000
opls_701-47    C    0.00000000    0.00000000    0.00000000    0.00110000
opls_145-48    C    0.54916001    0.52542011    0.65288924    -0.12880000
opls_145-49    C    0.57557990    0.52371996    0.77300064    -0.16540000
opls_145-50    C    0.58107992    0.49790989    0.89500046    0.19860000
opls_145-51    C    0.55980999    0.47415990    0.89663943    -0.18030000
opls_145-52    C    0.53336994    0.47570003    0.77691060    -0.12890000
opls_700-53    C    0.52826010    0.50062999    0.64380069    0.04590000
opls_142-54    C    0.63130001    0.51216007    0.02600924    0.07120000
opls_145-55    C    0.68281010    0.52407989    0.16825054    -0.12290000
opls_145-56    C    0.70466990    0.52202005    0.32403973    -0.11570000
opls_700-57    C    0.69804011    0.50564996    0.50273926    0.12460000
opls_145-58    C    0.66955992    0.49140001    0.52643926    -0.11770000
opls_145-59    C    0.64772993    0.49335990    0.37085973    -0.12630000
opls_700-60    C    0.65424990    0.50963989    0.19010957    0.06200000
opls_261-61    C    0.73910999    0.50125998    0.79637927    -0.04570000
opls_261-62    C    0.72044003    0.50335994    0.66208949    -0.08620000
opls_701-63    C    0.50000000    0.50000000    0.50000000    0.00110000
opls_145-64    C    0.52542011    0.45083999    0.34711076    -0.12880000
opls_145-65    C    0.52371996    0.42442010    0.22699936    -0.16540000
opls_145-66    C    0.49790989    0.41892008    0.10499954    0.19860000
opls_145-67    C    0.47415990    0.44019001    0.10336057    -0.18030000
opls_145-68    C    0.47570003    0.46663006    0.22308940    -0.12890000
opls_700-69    C    0.50062999    0.47173990    0.35619931    0.04590000
opls_142-70    C    0.51216007    0.36869999    0.97399076    0.07120000
opls_145-71    C    0.52407989    0.31718990    0.83174946    -0.12290000
opls_145-72    C    0.52202005    0.29533010    0.67596027    -0.11570000
opls_700-73    C    0.50564996    0.30195989    0.49726074    0.12460000
opls_145-74    C    0.49140001    0.33044008    0.47356074    -0.11770000
opls_145-75    C    0.49335990    0.35227007    0.62914027    -0.12630000
opls_700-76    C    0.50963989    0.34575010    0.80989043    0.06200000
opls_261-77    C    0.50125998    0.26089001    0.20362073    -0.04570000
opls_261-78    C    0.50335994    0.27955997    0.33791051    -0.08620000
opls_145-79    C    0.97457989    0.04916001    0.84711076    -0.12880000
opls_145-80    C    0.97628004    0.07557990    0.72699936    -0.16540000
opls_145-81    C    0.00209011    0.08107992    0.60499954    0.19860000
opls_145-82    C    0.02584010    0.05980999    0.60336057    -0.18030000
opls_145-83    C    0.02429997    0.03336994    0.72308940    -0.12890000
opls_700-84    C    0.99937001    0.02826010    0.85619931    0.04590000
opls_142-85    C    0.98783993    0.13130001    0.47399076    0.07120000
opls_145-86    C    0.97592011    0.18281010    0.33174946    -0.12290000
opls_145-87    C    0.97797995    0.20466990    0.17596027    -0.11570000
opls_700-88    C    0.99435004    0.19804011    0.99726074    0.12460000
opls_145-89    C    0.00859999    0.16955992    0.97356074    -0.11770000
opls_145-90    C    0.00664010    0.14772993    0.12914027    -0.12630000
opls_700-91    C    0.99036011    0.15424990    0.30989043    0.06200000
opls_261-92    C    0.99874002    0.23910999    0.70362073    -0.04570000
opls_261-93    C    0.99664006    0.22044003    0.83791051    -0.08620000
opls_145-94    C    0.04916001    0.52542011    0.09711076    -0.12880000
opls_145-95    C    0.07557990    0.52371996    0.97699936    -0.16540000
opls_145-96    C    0.08107992    0.49790989    0.85499954    0.19860000
opls_145-97    C    0.05980999    0.47415990    0.85336057    -0.18030000
opls_145-98    C    0.03336994    0.47570003    0.97308940    -0.12890000
opls_700-99    C    0.02826010    0.50062999    0.10619931    0.04590000
opls_142-100    C    0.13130001    0.51216007    0.72399076    0.07120000
opls_145-101    C    0.18281010    0.52407989    0.58174946    -0.12290000
opls_145-102    C    0.20466990    0.52202005    0.42596027    -0.11570000
opls_700-103    C    0.19804011    0.50564996    0.24726074    0.12460000
opls_145-104    C    0.16955992    0.49140001    0.22356074    -0.11770000
opls_145-105    C    0.14772993    0.49335990    0.37914027    -0.12630000
opls_700-106    C    0.15424990    0.50963989    0.55989043    0.06200000
opls_261-107    C    0.23910999    0.50125998    0.95362073    -0.04570000
opls_261-108    C    0.22044003    0.50335994    0.08791051    -0.08620000
opls_145-109    C    0.45083999    0.97457989    0.59711076    -0.12880000
opls_145-110    C    0.42442010    0.97628004    0.47699936    -0.16540000
opls_145-111    C    0.41892008    0.00209011    0.35499954    0.19860000
opls_145-112    C    0.44019001    0.02584010    0.35336057    -0.18030000
opls_145-113    C    0.46663006    0.02429997    0.47308940    -0.12890000
opls_700-114    C    0.47173990    0.99937001    0.60619931    0.04590000
opls_142-115    C    0.36869999    0.98783993    0.22399076    0.07120000
opls_145-116    C    0.31718990    0.97592011    0.08174946    -0.12290000
opls_145-117    C    0.29533010    0.97797995    0.92596027    -0.11570000
opls_700-118    C    0.30195989    0.99435004    0.74726074    0.12460000
opls_145-119    C    0.33044008    0.00859999    0.72356074    -0.11770000
opls_145-120    C    0.35227007    0.00664010    0.87914027    -0.12630000
opls_700-121    C    0.34575010    0.99036011    0.05989043    0.06200000
opls_261-122    C    0.26089001    0.99874002    0.45362073    -0.04570000
opls_261-123    C    0.27955997    0.99664006    0.58791051    -0.08620000
opls_145-124    C    0.45083999    0.47457989    0.65288924    -0.12880000
opls_145-125    C    0.42442010    0.47628004    0.77300064    -0.16540000
opls_145-126    C    0.41892008    0.50209011    0.89500046    0.19860000
opls_145-127    C    0.44019001    0.52584010    0.89663943    -0.18030000
opls_145-128    C    0.46663006    0.52429997    0.77691060    -0.12890000
opls_700-129    C    0.47173990    0.49937001    0.64380069    0.04590000
opls_142-130    C    0.36869999    0.48783993    0.02600924    0.07120000
opls_145-131    C    0.31718990    0.47592011    0.16825054    -0.12290000
opls_145-132    C    0.29533010    0.47797995    0.32403973    -0.11570000
opls_700-133    C    0.30195989    0.49435004    0.50273926    0.12460000
opls_145-134    C    0.33044008    0.50859999    0.52643926    -0.11770000
opls_145-135    C    0.35227007    0.50664010    0.37085973    -0.12630000
opls_700-136    C    0.34575010    0.49036011    0.19010957    0.06200000
opls_261-137    C    0.26089001    0.49874002    0.79637927    -0.04570000
opls_261-138    C    0.27955997    0.49664006    0.66208949    -0.08620000
opls_145-139    C    0.04916001    0.02542011    0.15288924    -0.12880000
opls_145-140    C    0.07557990    0.02371996    0.27300064    -0.16540000
opls_145-141    C    0.08107992    0.99790989    0.39500046    0.19860000
opls_145-142    C    0.05980999    0.97415990    0.39663943    -0.18030000
opls_145-143    C    0.03336994    0.97570003    0.27691060    -0.12890000
opls_700-144    C    0.02826010    0.00062999    0.14380069    0.04590000
opls_142-145    C    0.13130001    0.01216007    0.52600924    0.07120000
opls_145-146    C    0.18281010    0.02407989    0.66825054    -0.12290000
opls_145-147    C    0.20466990    0.02202005    0.82403973    -0.11570000
opls_700-148    C    0.19804011    0.00564996    0.00273926    0.12460000
opls_145-149    C    0.16955992    0.99140001    0.02643926    -0.11770000
opls_145-150    C    0.14772993    0.99335990    0.87085973    -0.12630000
opls_700-151    C    0.15424990    0.00963989    0.69010957    0.06200000
opls_261-152    C    0.23910999    0.00125998    0.29637927    -0.04570000
opls_261-153    C    0.22044003    0.00335994    0.16208949    -0.08620000
opls_145-154    C    0.52542011    0.95083999    0.90288924    -0.12880000
opls_145-155    C    0.52371996    0.92442010    0.02300064    -0.16540000
opls_145-156    C    0.49790989    0.91892008    0.14500046    0.19860000
opls_145-157    C    0.47415990    0.94019001    0.14663943    -0.18030000
opls_145-158    C    0.47570003    0.96663006    0.02691060    -0.12890000
opls_700-159    C    0.50062999    0.97173990    0.89380069    0.04590000
opls_142-160    C    0.51216007    0.86869999    0.27600924    0.07120000
opls_145-161    C    0.52407989    0.81718990    0.41825054    -0.12290000
opls_145-162    C    0.52202005    0.79533010    0.57403973    -0.11570000
opls_700-163    C    0.50564996    0.80195989    0.75273926    0.12460000
opls_145-164    C    0.49140001    0.83044008    0.77643926    -0.11770000
opls_145-165    C    0.49335990    0.85227007    0.62085973    -0.12630000
opls_700-166    C    0.50963989    0.84575010    0.44010957    0.06200000
opls_261-167    C    0.50125998    0.76089001    0.04637927    -0.04570000
opls_261-168    C    0.50335994    0.77955997    0.91208949    -0.08620000
opls_145-169    C    0.97457989    0.54916001    0.40288924    -0.12880000
opls_145-170    C    0.97628004    0.57557990    0.52300064    -0.16530000
opls_145-171    C    0.00209011    0.58107992    0.64500046    0.19860000
opls_145-172    C    0.02584010    0.55980999    0.64663943    -0.18030000
opls_145-173    C    0.02429997    0.53336994    0.52691060    -0.12890000
opls_700-174    C    0.99937001    0.52826010    0.39380069    0.04590000
opls_142-175    C    0.98783993    0.63130001    0.77600924    0.07120000
opls_145-176    C    0.97592011    0.68281010    0.91825054    -0.12290000
opls_145-177    C    0.97797995    0.70466990    0.07403973    -0.11570000
opls_700-178    C    0.99435004    0.69804011    0.25273926    0.12460000
opls_145-179    C    0.00859999    0.66955992    0.27643926    -0.11770000
opls_145-180    C    0.00664010    0.64772993    0.12085973    -0.12630000
opls_700-181    C    0.99036011    0.65424990    0.94010957    0.06200000
opls_261-182    C    0.99874002    0.73910999    0.54637927    -0.04570000
opls_261-183    C    0.99664006    0.72044003    0.41208949    -0.08620000
opls_145-184    C    0.02542011    0.95083999    0.84711076    -0.12880000
opls_145-185    C    0.02371996    0.92442010    0.72699936    -0.16540000
opls_145-186    C    0.99790989    0.91892008    0.60499954    0.19860000
opls_145-187    C    0.97415990    0.94019001    0.60336057    -0.18020000
opls_145-188    C    0.97570003    0.96663006    0.72308940    -0.12890000
opls_700-189    C    0.00062999    0.97173990    0.85619931    0.04590000
opls_142-190    C    0.01216007    0.86869999    0.47399076    0.07120000
opls_145-191    C    0.02407989    0.81718990    0.33174946    -0.12290000
opls_145-192    C    0.02202005    0.79533010    0.17596027    -0.11570000
opls_700-193    C    0.00564996    0.80195989    0.99726074    0.12470000
opls_145-194    C    0.99140001    0.83044008    0.97356074    -0.11770000
opls_145-195    C    0.99335990    0.85227007    0.12914027    -0.12630000
opls_700-196    C    0.00963989    0.84575010    0.30989043    0.06200000
opls_261-197    C    0.00125998    0.76089001    0.70362073    -0.04570000
opls_261-198    C    0.00335994    0.77955997    0.83791051    -0.08620000
opls_145-199    C    0.47457989    0.54916001    0.34711076    -0.12880000
opls_145-200    C    0.47628004    0.57557990    0.22699936    -0.16540000
opls_145-201    C    0.50209011    0.58107992    0.10499954    0.19860000
opls_145-202    C    0.52584010    0.55980999    0.10336057    -0.18030000
opls_145-203    C    0.52429997    0.53336994    0.22308940    -0.12890000
opls_700-204    C    0.49937001    0.52826010    0.35619931    0.04590000
opls_142-205    C    0.48783993    0.63130001    0.97399076    0.07120000
opls_145-206    C    0.47592011    0.68281010    0.83174946    -0.12290000
opls_145-207    C    0.47797995    0.70466990    0.67596027    -0.11570000
opls_700-208    C    0.49435004    0.69804011    0.49726074    0.12460000
opls_145-209    C    0.50859999    0.66955992    0.47356074    -0.11770000
opls_145-210    C    0.50664010    0.64772993    0.62914027    -0.12630000
opls_700-211    C    0.49036011    0.65424990    0.80989043    0.06200000
opls_261-212    C    0.49874002    0.73910999    0.20362073    -0.04570000
opls_261-213    C    0.49664006    0.72044003    0.33791051    -0.08620000
opls_145-214    C    0.54916001    0.02542011    0.59711076    -0.12880000
opls_145-215    C    0.57557990    0.02371996    0.47699936    -0.16540000
opls_145-216    C    0.58107992    0.99790989    0.35499954    0.19860000
opls_145-217    C    0.55980999    0.97415990    0.35336057    -0.18030000
opls_145-218    C    0.53336994    0.97570003    0.47308940    -0.12890000
opls_700-219    C    0.52826010    0.00062999    0.60619931    0.04590000
opls_142-220    C    0.63130001    0.01216007    0.22399076    0.07120000
opls_145-221    C    0.68281010    0.02407989    0.08174946    -0.12290000
opls_145-222    C    0.70466990    0.02202005    0.92596027    -0.11570000
opls_700-223    C    0.69804011    0.00564996    0.74726074    0.12460000
opls_145-224    C    0.66955992    0.99140001    0.72356074    -0.11770000
opls_145-225    C    0.64772993    0.99335990    0.87914027    -0.12630000
opls_700-226    C    0.65424990    0.00963989    0.05989043    0.06200000
opls_261-227    C    0.73910999    0.00125998    0.45362073    -0.04570000
opls_261-228    C    0.72044003    0.00335994    0.58791051    -0.08620000
opls_145-229    C    0.95083999    0.47457989    0.09711076    -0.12880000
opls_145-230    C    0.92442010    0.47628004    0.97699936    -0.16540000
opls_145-231    C    0.91892008    0.50209011    0.85499954    0.19860000
opls_145-232    C    0.94019001    0.52584010    0.85336057    -0.18030000
opls_145-233    C    0.96663006    0.52429997    0.97308940    -0.12880000
opls_700-234    C    0.97173990    0.49937001    0.10619931    0.04590000
opls_142-235    C    0.86869999    0.48783993    0.72399076    0.07120000
opls_145-236    C    0.81718990    0.47592011    0.58174946    -0.12290000
opls_145-237    C    0.79533010    0.47797995    0.42596027    -0.11570000
opls_700-238    C    0.80195989    0.49435004    0.24726074    0.12460000
opls_145-239    C    0.83044008    0.50859999    0.22356074    -0.11770000
opls_145-240    C    0.85227007    0.50664010    0.37914027    -0.12620000
opls_700-241    C    0.84575010    0.49036011    0.55989043    0.06200000
opls_261-242    C    0.76089001    0.49874002    0.95362073    -0.04570000
opls_261-243    C    0.77955997    0.49664006    0.08791051    -0.08610000
opls_750-244    N    0.50359997    0.10611007    0.28604046    -0.34740000
opls_750-245    N    0.99640003    0.39388993    0.78604046    -0.34740000
opls_750-246    N    0.89388993    0.00359997    0.53604046    -0.34730000
opls_750-247    N    0.60611007    0.49640003    0.03604046    -0.34740000
opls_750-248    N    0.49640003    0.39388993    0.96395954    -0.34740000
opls_750-249    N    0.00359997    0.10611007    0.46395954    -0.34740000
opls_750-250    N    0.10611007    0.49640003    0.71395954    -0.34740000
opls_750-251    N    0.39388993    0.00359997    0.21395954    -0.34730000
opls_750-252    N    0.39388993    0.50359997    0.03604046    -0.34740000
opls_750-253    N    0.10611007    0.99640003    0.53604046    -0.34740000
opls_750-254    N    0.49640003    0.89388993    0.28604046    -0.34740000
opls_750-255    N    0.00359997    0.60611007    0.78604046    -0.34740000
opls_750-256    N    0.99640003    0.89388993    0.46395954    -0.34740000
opls_750-257    N    0.50359997    0.60611007    0.96395954    -0.34730000
opls_750-258    N    0.60611007    0.99640003    0.21395954    -0.34740000
opls_750-259    N    0.89388993    0.50359997    0.71395954    -0.34740000
opls_146-260    H    0.45335994    0.04514005    0.82233036    0.12160000
opls_146-261    H    0.45671003    0.09075007    0.02770942    0.11750000
opls_146-262    H    0.54559008    0.06405004    0.24193983    0.12520000
opls_146-263    H    0.54322991    0.01732997    0.03056958    0.11920000
opls_144-264    H    0.47292995    0.13596990    0.14721023    0.10770000
opls_146-265    H    0.46319011    0.18819000    0.28052980    0.11700000
opls_146-266    H    0.46689004    0.22673006    0.55546017    0.12040000
opls_146-267    H    0.52121009    0.16429993    0.91503076    0.11840000
opls_146-268    H    0.51766010    0.12568994    0.64165060    0.11560000
opls_146-269    H    0.04664006    0.45485995    0.32233036    0.12160000
opls_146-270    H    0.04328997    0.40924993    0.52770942    0.11750000
opls_146-271    H    0.95440992    0.43594996    0.74193983    0.12520000
opls_146-272    H    0.95677009    0.48267003    0.53056958    0.11920000
opls_144-273    H    0.02707005    0.36403010    0.64721023    0.10770000
opls_146-274    H    0.03680989    0.31181000    0.78052980    0.11700000
opls_146-275    H    0.03310996    0.27326994    0.05546017    0.12040000
opls_146-276    H    0.97878991    0.33570007    0.41503076    0.11840000
opls_146-277    H    0.98233990    0.37431006    0.14165060    0.11560000
opls_146-278    H    0.95485995    0.95335994    0.07233036    0.12160000
opls_146-279    H    0.90924993    0.95671003    0.27770942    0.11750000
opls_146-280    H    0.93594996    0.04559008    0.49193983    0.12520000
opls_146-281    H    0.98267003    0.04322991    0.28056958    0.11920000
opls_144-282    H    0.86403010    0.97292995    0.39721023    0.10770000
opls_146-283    H    0.81181000    0.96319011    0.53052980    0.11710000
opls_146-284    H    0.77326994    0.96689004    0.80546017    0.12040000
opls_146-285    H    0.83570007    0.02121009    0.16503076    0.11840000
opls_146-286    H    0.87431006    0.01766010    0.89165060    0.11560000
opls_146-287    H    0.54514005    0.54664006    0.57233036    0.12160000
opls_146-288    H    0.59075007    0.54328997    0.77770942    0.11750000
opls_146-289    H    0.56405004    0.45440992    0.99193983    0.12520000
opls_146-290    H    0.51732997    0.45677009    0.78056958    0.11920000
opls_144-291    H    0.63596990    0.52707005    0.89721023    0.10770000
opls_146-292    H    0.68819000    0.53680989    0.03052980    0.11700000
opls_146-293    H    0.72673006    0.53310996    0.30546017    0.12040000
opls_146-294    H    0.66429993    0.47878991    0.66503076    0.11840000
opls_146-295    H    0.62568994    0.48233990    0.39165060    0.11560000
opls_146-296    H    0.54664006    0.45485995    0.42766964    0.12160000
opls_146-297    H    0.54328997    0.40924993    0.22229058    0.11750000
opls_146-298    H    0.45440992    0.43594996    0.00806017    0.12520000
opls_146-299    H    0.45677009    0.48267003    0.21943042    0.11920000
opls_144-300    H    0.52707005    0.36403010    0.10278977    0.10770000
opls_146-301    H    0.53680989    0.31181000    0.96947020    0.11700000
opls_146-302    H    0.53310996    0.27326994    0.69453983    0.12040000
opls_146-303    H    0.47878991    0.33570007    0.33496924    0.11840000
opls_146-304    H    0.48233990    0.37431006    0.60834940    0.11560000
opls_146-305    H    0.95335994    0.04514005    0.92766964    0.12160000
opls_146-306    H    0.95671003    0.09075007    0.72229058    0.11750000
opls_146-307    H    0.04559008    0.06405004    0.50806017    0.12520000
opls_146-308    H    0.04322991    0.01732997    0.71943042    0.11920000
opls_144-309    H    0.97292995    0.13596990    0.60278977    0.10780000
opls_146-310    H    0.96319011    0.18819000    0.46947020    0.11700000
opls_146-311    H    0.96689004    0.22673006    0.19453983    0.12040000
opls_146-312    H    0.02121009    0.16429993    0.83496924    0.11840000
opls_146-313    H    0.01766010    0.12568994    0.10834940    0.11560000
opls_146-314    H    0.04514005    0.54664006    0.17766964    0.12160000
opls_146-315    H    0.09075007    0.54328997    0.97229058    0.11760000
opls_146-316    H    0.06405004    0.45440992    0.75806017    0.12520000
opls_146-317    H    0.01732997    0.45677009    0.96943042    0.11920000
opls_144-318    H    0.13596990    0.52707005    0.85278977    0.10770000
opls_146-319    H    0.18819000    0.53680989    0.71947020    0.11700000
opls_146-320    H    0.22673006    0.53310996    0.44453983    0.12040000
opls_146-321    H    0.16429993    0.47878991    0.08496924    0.11840000
opls_146-322    H    0.12568994    0.48233990    0.35834940    0.11560000
opls_146-323    H    0.45485995    0.95335994    0.67766964    0.12160000
opls_146-324    H    0.40924993    0.95671003    0.47229058    0.11750000
opls_146-325    H    0.43594996    0.04559008    0.25806017    0.12520000
opls_146-326    H    0.48267003    0.04322991    0.46943042    0.11920000
opls_144-327    H    0.36403010    0.97292995    0.35278977    0.10770000
opls_146-328    H    0.31181000    0.96319011    0.21947020    0.11700000
opls_146-329    H    0.27326994    0.96689004    0.94453983    0.12040000
opls_146-330    H    0.33570007    0.02121009    0.58496924    0.11840000
opls_146-331    H    0.37431006    0.01766010    0.85834940    0.11560000
opls_146-332    H    0.45485995    0.45335994    0.57233036    0.12170000
opls_146-333    H    0.40924993    0.45671003    0.77770942    0.11750000
opls_146-334    H    0.43594996    0.54559008    0.99193983    0.12520000
opls_146-335    H    0.48267003    0.54322991    0.78056958    0.11920000
opls_144-336    H    0.36403010    0.47292995    0.89721023    0.10770000
opls_146-337    H    0.31181000    0.46319011    0.03052980    0.11700000
opls_146-338    H    0.27326994    0.46689004    0.30546017    0.12040000
opls_146-339    H    0.33570007    0.52121009    0.66503076    0.11840000
opls_146-340    H    0.37431006    0.51766010    0.39165060    0.11560000
opls_146-341    H    0.04514005    0.04664006    0.07233036    0.12160000
opls_146-342    H    0.09075007    0.04328997    0.27770942    0.11750000
opls_146-343    H    0.06405004    0.95440992    0.49193983    0.12520000
opls_146-344    H    0.01732997    0.95677009    0.28056958    0.11920000
opls_144-345    H    0.13596990    0.02707005    0.39721023    0.10770000
opls_146-346    H    0.18819000    0.03680989    0.53052980    0.11700000
opls_146-347    H    0.22673006    0.03310996    0.80546017    0.12040000
opls_146-348    H    0.16429993    0.97878991    0.16503076    0.11850000
opls_146-349    H    0.12568994    0.98233990    0.89165060    0.11560000
opls_146-350    H    0.54664006    0.95485995    0.82233036    0.12160000
opls_146-351    H    0.54328997    0.90924993    0.02770942    0.11750000
opls_146-352    H    0.45440992    0.93594996    0.24193983    0.12520000
opls_146-353    H    0.45677009    0.98267003    0.03056958    0.11920000
opls_144-354    H    0.52707005    0.86403010    0.14721023    0.10770000
opls_146-355    H    0.53680989    0.81181000    0.28052980    0.11700000
opls_146-356    H    0.53310996    0.77326994    0.55546017    0.12040000
opls_146-357    H    0.47878991    0.83570007    0.91503076    0.11840000
opls_146-358    H    0.48233990    0.87431006    0.64165060    0.11570000
opls_146-359    H    0.95335994    0.54514005    0.32233036    0.12160000
opls_146-360    H    0.95671003    0.59075007    0.52770942    0.11750000
opls_146-361    H    0.04559008    0.56405004    0.74193983    0.12520000
opls_146-362    H    0.04322991    0.51732997    0.53056958    0.11920000
opls_144-363    H    0.97292995    0.63596990    0.64721023    0.10770000
opls_146-364    H    0.96319011    0.68819000    0.78052980    0.11700000
opls_146-365    H    0.96689004    0.72673006    0.05546017    0.12040000
opls_146-366    H    0.02121009    0.66429993    0.41503076    0.11840000
opls_146-367    H    0.01766010    0.62568994    0.14165060    0.11560000
opls_146-368    H    0.04664006    0.95485995    0.92766964    0.12160000
opls_146-369    H    0.04328997    0.90924993    0.72229058    0.11750000
opls_146-370    H    0.95440992    0.93594996    0.50806017    0.12520000
opls_146-371    H    0.95677009    0.98267003    0.71943042    0.11920000
opls_144-372    H    0.02707005    0.86403010    0.60278977    0.10780000
opls_146-373    H    0.03680989    0.81181000    0.46947020    0.11700000
opls_146-374    H    0.03310996    0.77326994    0.19453983    0.12040000
opls_146-375    H    0.97878991    0.83570007    0.83496924    0.11840000
opls_146-376    H    0.98233990    0.87431006    0.10834940    0.11560000
opls_146-377    H    0.45335994    0.54514005    0.42766964    0.12160000
opls_146-378    H    0.45671003    0.59075007    0.22229058    0.11750000
opls_146-379    H    0.54559008    0.56405004    0.00806017    0.12520000
opls_146-380    H    0.54322991    0.51732997    0.21943042    0.11920000
opls_144-381    H    0.47292995    0.63596990    0.10278977    0.10770000
opls_146-382    H    0.46319011    0.68819000    0.96947020    0.11700000
opls_146-383    H    0.46689004    0.72673006    0.69453983    0.12040000
opls_146-384    H    0.52121009    0.66429993    0.33496924    0.11840000
opls_146-385    H    0.51766010    0.62568994    0.60834940    0.11560000
opls_146-386    H    0.54514005    0.04664006    0.67766964    0.12160000
opls_146-387    H    0.59075007    0.04328997    0.47229058    0.11750000
opls_146-388    H    0.56405004    0.95440992    0.25806017    0.12530000
opls_146-389    H    0.51732997    0.95677009    0.46943042    0.11920000
opls_144-390    H    0.63596990    0.02707005    0.35278977    0.10770000
opls_146-391    H    0.68819000    0.03680989    0.21947020    0.11700000
opls_146-392    H    0.72673006    0.03310996    0.94453983    0.12040000
opls_146-393    H    0.66429993    0.97878991    0.58496924    0.11840000
opls_146-394    H    0.62568994    0.98233990    0.85834940    0.11560000
opls_146-395    H    0.95485995    0.45335994    0.17766964    0.12160000
opls_146-396    H    0.90924993    0.45671003    0.97229058    0.11750000
opls_146-397    H    0.93594996    0.54559008    0.75806017    0.12520000
opls_146-398    H    0.98267003    0.54322991    0.96943042    0.11920000
opls_144-399    H    0.86403010    0.47292995    0.85278977    0.10770000
opls_146-400    H    0.81181000    0.46319011    0.71947020    0.11700000
opls_146-401    H    0.77326994    0.46689004    0.44453983    0.12040000
opls_146-402    H    0.83570007    0.52121009    0.08496924    0.11840000
opls_146-403    H    0.87431006    0.51766010    0.35834940    0.11560000
