#======================================================================
# Crystal Data Generated By AuToFF
#----------------------------------------------------------------------

data_AuToFF_phase_1

_cell_length_a                         35.9649
_cell_length_b                         19.5253
_cell_length_c                         9.9636
_cell_angle_alpha                      90.00
_cell_angle_beta                       90.00
_cell_angle_gamma                      90.00
_symmetry_space_group_name_H-M_alt     'P 1'
_symmetry_space_group_IT_number        1

loop_
_space_group_symop_operation_xyz
   'x, y, z'

loop_
   _atom_site_label
   _atom_site_type_symbol
   _atom_site_fract_x
   _atom_site_fract_y
   _atom_site_fract_z
   _atom_site_charge
opls_142-0    C    0.69472986    0.28975995    0.98489000    0.06870000
opls_145-1    C    0.62860011    0.27852018    0.99857983    0.18600000
opls_145-2    C    0.60237009    0.28621993    0.10107993    -0.16990000
opls_145-3    C    0.57061997    0.24506000    0.10310029    -0.12690000
opls_700-4    C    0.56435997    0.19737008    0.00000000    0.07220000
opls_145-5    C    0.58952006    0.19293993    0.89270043    -0.12450000
opls_145-6    C    0.62180988    0.23253010    0.89278975    -0.17050000
opls_700-7    C    0.42779988    0.18509011    0.01405014    0.07000000
opls_145-8    C    0.41801006    0.22659985    0.12315027    -0.11930000
opls_145-9    C    0.38456996    0.26293988    0.12175017    -0.17790000
opls_145-10    C    0.36066999    0.25893994    0.00979967    0.18700000
opls_145-11    C    0.37042005    0.21663995    0.90167008    -0.16990000
opls_145-12    C    0.40388990    0.18027994    0.90320968    -0.12810000
opls_142-13    C    0.31715005    0.34808991    0.07640010    0.06850000
opls_145-14    C    0.76028989    0.43843014    0.94463045    -0.14030000
opls_145-15    C    0.72782991    0.39971985    0.94602955    -0.13400000
opls_700-16    C    0.72867991    0.33184996    0.98921976    0.05590000
opls_145-17    C    0.76225987    0.30403016    0.03463005    -0.13290000
opls_145-18    C    0.79415986    0.34528996    0.04543037    -0.17630000
opls_145-19    C    0.78462000    0.62356993    0.91159019    -0.13090000
opls_145-20    C    0.74960003    0.65520991    0.90700951    -0.13230000
opls_700-21    C    0.72214993    0.63757023    0.00110000    0.05390000
opls_145-22    C    0.73077000    0.59099015    0.10343049    -0.12160000
opls_145-23    C    0.76620010    0.56183004    0.11151993    -0.12140000
opls_142-24    C    0.68445012    0.66712983    0.99778996    0.06870000
opls_145-25    C    0.64114011    0.75604984    0.94091995    0.18690000
opls_145-26    C    0.62581990    0.78892975    0.82879983    -0.16990000
opls_145-27    C    0.59174000    0.82328005    0.83943956    -0.12890000
opls_700-28    C    0.57291999    0.82556017    0.96255972    0.06740000
opls_145-29    C    0.58840008    0.79385003    0.07528002    -0.12150000
opls_145-30    C    0.62236013    0.75968000    0.06476976    -0.16990000
opls_700-31    C    0.53753993    0.86335011    0.97568048    0.03340000
opls_700-32    C    0.53647000    0.93561021    0.98530953    0.02560000
opls_700-33    C    0.50155012    0.96914977    0.99891003    0.01830000
opls_700-34    C    0.46860995    0.93021977    0.00735979    0.03290000
opls_700-35    C    0.47017008    0.85806006    0.99592015    0.03300000
opls_145-36    C    0.50462006    0.82556990    0.98015978    -0.18270000
opls_145-37    C    0.56902007    0.97506005    0.98475952    -0.11970000
opls_145-38    C    0.56755003    0.04606024    0.99465956    -0.12050000
opls_700-39    C    0.53312007    0.08073013    0.00019973    0.03120000
opls_700-40    C    0.50010010    0.04172996    0.00488980    0.02140000
opls_700-41    C    0.46505009    0.07508976    0.01628026    0.03290000
opls_145-42    C    0.43291987    0.03538998    0.03198041    -0.12840000
opls_145-43    C    0.43461013    0.96438979    0.02984965    -0.12140000
opls_700-44    C    0.53108003    0.15318023    0.00398049    0.03320000
opls_145-45    C    0.49628999    0.18526988    0.01083042    -0.14080000
opls_700-46    C    0.46347995    0.14734985    0.01520033    0.03320000
opls_700-47    C    0.43636991    0.81543997    0.99727006    0.07130000
opls_145-48    C    0.40849995    0.82604006    0.90068048    -0.12040000
opls_145-49    C    0.37535013    0.78935023    0.90752037    -0.17140000
opls_145-50    C    0.37000993    0.74047979    0.00913023    0.18510000
opls_145-51    C    0.39839010    0.72783978    0.10217993    -0.17140000
opls_145-52    C    0.43135001    0.76563023    0.09714962    -0.13000000
opls_142-53    C    0.30382011    0.72775988    0.99629953    0.08020000
opls_700-54    C    0.27092999    0.68378002    0.99607973    0.05880000
opls_145-55    C    0.23774986    0.70662986    0.05442009    -0.11980000
opls_145-56    C    0.20657002    0.66402002    0.05633004    -0.13340000
opls_700-57    C    0.20766998    0.59927018    0.99420992    0.06420000
opls_145-58    C    0.24060987    0.57841006    0.93090048    -0.12410000
opls_145-59    C    0.27229994    0.61930982    0.93499036    -0.12390000
opls_700-60    C    0.17415007    0.55465985    0.99416978    0.02780000
opls_700-61    C    0.28012006    0.38020978    0.06579951    0.06020000
opls_145-62    C    0.27296002    0.44030975    0.13808965    -0.12040000
opls_145-63    C    0.23779991    0.47072977    0.13447951    -0.12240000
opls_700-64    C    0.20999002    0.44485002    0.04985046    0.06740000
opls_145-65    C    0.21713004    0.38437975    0.97738970    -0.13290000
opls_145-66    C    0.25178994    0.35206988    0.98576017    -0.13340000
opls_700-67    C    0.17483991    0.48347990    0.02542956    0.02960000
opls_145-68    C    0.14023006    0.58517001    0.95978963    -0.25730000
opls_145-69    C    0.14132001    0.44635012    0.02281003    -0.24930000
opls_182-70    C    0.07255991    0.37011979    0.00393031    -0.02010000
opls_182-71    C    0.03752993    0.33590009    0.94965976    -0.02020000
opls_182-72    C    0.93704000    0.36386995    0.98342968    -0.02040000
opls_182-73    C    0.97445009    0.34403978    0.92216970    -0.01430000
opls_166-74    C    0.89582009    0.53849006    0.00654984    0.13640000
opls_166-75    C    0.89760989    0.46670013    0.00340038    0.29510000
opls_166-76    C    0.10744003    0.47727000    0.98442029    0.15040000
opls_166-77    C    0.10689005    0.54785996    0.96005962    0.13820000
opls_182-78    C    0.06706011    0.64572017    0.99160043    -0.01430000
opls_182-79    C    0.03054005    0.64601978    0.06771950    -0.01770000
opls_182-80    C    0.96944994    0.67357992    0.01744952    -0.01900000
opls_182-81    C    0.93419000    0.64049003    0.96243025    -0.01130000
opls_145-82    C    0.86103006    0.57104987    0.00789976    -0.26610000
opls_700-83    C    0.82756994    0.53367989    0.00649966    0.03560000
opls_700-84    C    0.82856007    0.45992994    0.00538962    0.02200000
opls_145-85    C    0.86402993    0.42832018    0.00467000    -0.23820000
opls_700-86    C    0.79276990    0.57492996    0.01209001    0.06760000
opls_700-87    C    0.79394993    0.41444024    0.00000000    0.06370000
opls_142-88    C    0.19446989    0.28979017    0.48477960    0.06870000
opls_145-89    C    0.12833012    0.27856012    0.49812016    0.18590000
opls_145-90    C    0.10210010    0.28633004    0.60048978    -0.17180000
opls_145-91    C    0.07035999    0.24509022    0.60267975    -0.12890000
opls_700-92    C    0.06418008    0.19725997    0.49970994    0.07010000
opls_145-93    C    0.08931986    0.19274992    0.39257999    -0.12040000
opls_145-94    C    0.12159995    0.23243023    0.39248966    -0.17230000
opls_700-95    C    0.92761999    0.18492981    0.51404011    0.07190000
opls_145-96    C    0.91780986    0.22642981    0.62314023    -0.11930000
opls_145-97    C    0.88439006    0.26278009    0.62185957    -0.17700000
opls_145-98    C    0.86047007    0.25882983    0.50987996    0.18750000
opls_145-99    C    0.87022013    0.21654981    0.40173030    -0.16990000
opls_145-100    C    0.90366997    0.18016010    0.40316954    -0.12890000
opls_142-101    C    0.81699991    0.34802999    0.57661990    0.06800000
opls_145-102    C    0.26020008    0.43820991    0.44407042    -0.13400000
opls_145-103    C    0.22771007    0.39956979    0.44525975    -0.13380000
opls_700-104    C    0.22845997    0.33184023    0.48935023    0.05640000
opls_145-105    C    0.26194011    0.30413003    0.53612951    -0.13390000
opls_145-106    C    0.29384011    0.34542978    0.54726003    -0.18580000
opls_145-107    C    0.28446013    0.62349004    0.41229977    -0.13100000
opls_145-108    C    0.24943987    0.65513001    0.40764985    -0.13300000
opls_700-109    C    0.22195001    0.63736998    0.50149043    0.05320000
opls_145-110    C    0.23051003    0.59059989    0.60354992    -0.12160000
opls_145-111    C    0.26592011    0.56137985    0.61162030    -0.12140000
opls_142-112    C    0.18424992    0.66697976    0.49821049    0.06870000
opls_145-113    C    0.14097996    0.75596022    0.44152013    0.18670000
opls_145-114    C    0.12562999    0.78882015    0.32948031    -0.17200000
opls_145-115    C    0.09155009    0.82314996    0.34011000    -0.12920000
opls_700-116    C    0.07272007    0.82539987    0.46331045    0.06730000
opls_145-117    C    0.08823992    0.79369024    0.57595046    -0.12150000
opls_145-118    C    0.12219998    0.75956016    0.56546028    -0.16980000
opls_700-119    C    0.03740008    0.86318981    0.47642017    0.03300000
opls_700-120    C    0.03620002    0.93546015    0.48590971    0.03210000
opls_700-121    C    0.00148005    0.96900022    0.49938978    0.01830000
opls_700-122    C    0.96834997    0.93007022    0.50805030    0.02900000
opls_700-123    C    0.97003996    0.85790999    0.49676021    0.03310000
opls_145-124    C    0.00441013    0.82541011    0.48107010    -0.16640000
opls_145-125    C    0.06886993    0.97492023    0.48526035    -0.12190000
opls_145-126    C    0.06732008    0.04593015    0.49493958    -0.12010000
opls_700-127    C    0.03300996    0.08058980    0.50033020    0.02930000
opls_700-128    C    0.99979007    0.04159014    0.50518989    0.02140000
opls_700-129    C    0.96493998    0.07494021    0.51641977    0.03120000
opls_145-130    C    0.93268993    0.03525016    0.53232968    -0.12400000
opls_145-131    C    0.93447000    0.96424024    0.53037958    -0.12140000
opls_700-132    C    0.03083006    0.15303990    0.50386005    0.03350000
opls_145-133    C    0.99611010    0.18513006    0.51057951    -0.14080000
opls_700-134    C    0.96322998    0.14719979    0.51512004    0.03320000
opls_700-135    C    0.93618000    0.81528991    0.49805994    0.07190000
opls_145-136    C    0.90838012    0.82583981    0.40127966    -0.12030000
opls_145-137    C    0.87522001    0.78913000    0.40795997    -0.17310000
opls_145-138    C    0.86984004    0.74033997    0.50969027    0.18510000
opls_145-139    C    0.89815987    0.72779010    0.60297985    -0.17140000
opls_145-140    C    0.93113007    0.76556980    0.59810008    -0.12910000
opls_142-141    C    0.80366997    0.72760982    0.49629953    0.08060000
opls_700-142    C    0.77077011    0.68366017    0.49617006    0.05790000
opls_145-143    C    0.73761000    0.70654996    0.55453952    -0.11920000
opls_145-144    C    0.70643989    0.66392988    0.55673953    -0.13340000
opls_700-145    C    0.70753012    0.59914982    0.49472982    0.06420000
opls_145-146    C    0.74042997    0.57827024    0.43122968    -0.12410000
opls_145-147    C    0.77213005    0.61915976    0.43519009    -0.12390000
opls_700-148    C    0.67398992    0.55457996    0.49490044    0.02780000
opls_700-149    C    0.77996992    0.38020005    0.56617989    0.06060000
opls_145-150    C    0.77283991    0.44028005    0.63858043    -0.12040000
opls_145-151    C    0.73768007    0.47070007    0.63520013    -0.12160000
opls_700-152    C    0.70982013    0.44481007    0.55074973    0.06740000
opls_145-153    C    0.71694013    0.38440024    0.47812036    -0.13290000
opls_145-154    C    0.75162005    0.35210983    0.48619977    -0.13340000
opls_700-155    C    0.67466002    0.48343022    0.52643021    0.03470000
opls_145-156    C    0.64008992    0.58511009    0.46037978    -0.25100000
opls_145-157    C    0.64111008    0.44633015    0.52388996    -0.24870000
opls_182-158    C    0.57229994    0.37009982    0.50398049    -0.02020000
opls_182-159    C    0.53735003    0.33603991    0.44858987    -0.02020000
opls_182-160    C    0.43677002    0.36354986    0.48264985    -0.02040000
opls_182-161    C    0.47421986    0.34348000    0.42194990    -0.01430000
opls_166-162    C    0.39561990    0.53820991    0.50706973    0.13680000
opls_166-163    C    0.39739996    0.46638976    0.50323979    0.21690000
opls_166-164    C    0.60726013    0.47725976    0.48520013    0.15040000
opls_166-165    C    0.60674991    0.54783025    0.46063973    0.13680000
opls_182-166    C    0.56690996    0.64563003    0.49219961    -0.01430000
opls_182-167    C    0.53034987    0.64580006    0.56806977    -0.01770000
opls_182-168    C    0.46929006    0.67325009    0.51680015    -0.01350000
opls_182-169    C    0.43407989    0.63990976    0.46186017    -0.01210000
opls_145-170    C    0.36083987    0.57079994    0.50885021    -0.26610000
opls_700-171    C    0.32737002    0.53346991    0.50716006    0.03580000
opls_700-172    C    0.32834986    0.45973020    0.50575997    0.02300000
opls_145-173    C    0.36378997    0.42800981    0.50429965    -0.23840000
opls_700-174    C    0.29255997    0.57468976    0.51257979    0.06760000
opls_700-175    C    0.29373000    0.41433013    0.50033020    0.06430000
opls_750-176    N    0.66239000    0.31739999    0.00291963    -0.35810000
opls_750-177    N    0.32582991    0.29493990    0.00441005    -0.34570000
opls_750-178    N    0.67650987    0.72202015    0.92977036    -0.34570000
opls_750-179    N    0.33647000    0.70138999    0.01578044    -0.30450000
opls_750-180    N    0.16215004    0.31747015    0.50238970    -0.35800000
opls_750-181    N    0.82565001    0.29487998    0.50457967    -0.34580000
opls_750-182    N    0.17632998    0.72193001    0.43036955    -0.34560000
opls_750-183    N    0.83628010    0.70125990    0.51624011    -0.30460000
opls_179-184    O    0.07398992    0.44045981    0.96379020    -0.24160000
opls_180-185    O    0.00479996    0.36681997    0.00110000    -0.21310000
opls_179-186    O    0.93350989    0.43687011    0.99220964    -0.25110000
opls_179-187    O    0.92955993    0.57468003    0.02428038    -0.23930000
opls_179-188    O    0.07276011    0.57972016    0.93224035    -0.22710000
opls_180-189    O    0.00083999    0.63542020    0.97700028    -0.20470000
opls_179-190    O    0.57380001    0.44051000    0.46437031    -0.24160000
opls_180-191    O    0.50453998    0.36626019    0.50098960    -0.21310000
opls_179-192    O    0.43327995    0.43656999    0.49112971    -0.25110000
opls_179-193    O    0.42935001    0.57441986    0.52493978    -0.23800000
opls_179-194    O    0.57265000    0.57970991    0.43258963    -0.24470000
opls_180-195    O    0.50071987    0.63497001    0.47712975    -0.20500000
opls_144-196    H    0.69735993    0.23464992    0.97390000    0.10440000
opls_146-197    H    0.60696012    0.32240990    0.18195030    0.11380000
opls_146-198    H    0.55128000    0.24951012    0.18600004    0.11080000
opls_146-199    H    0.58463001    0.15739016    0.81087960    0.10990000
opls_146-200    H    0.64132001    0.22747000    0.81068991    0.11790000
opls_146-201    H    0.43600010    0.23015011    0.21003954    0.11520000
opls_146-202    H    0.37745997    0.29282008    0.20945040    0.11780000
opls_146-203    H    0.35218004    0.21214988    0.81554960    0.11220000
opls_146-204    H    0.41108998    0.14833012    0.81807981    0.11380000
opls_144-205    H    0.33724993    0.37104014    0.14371010    0.12160000
opls_146-206    H    0.75829990    0.48722017    0.89656048    0.24180000
opls_146-207    H    0.70246991    0.42236995    0.90736983    0.11300000
opls_146-208    H    0.76345993    0.25079000    0.06546028    0.11070000
opls_146-209    H    0.81846995    0.32204012    0.09046028    0.11540000
opls_146-210    H    0.80496011    0.63577000    0.83490004    0.11380000
opls_146-211    H    0.74377991    0.69248001    0.82944016    0.11810000
opls_146-212    H    0.70988992    0.57713992    0.17707957    0.11470000
opls_146-213    H    0.77223988    0.52465980    0.18878016    0.11800000
opls_144-214    H    0.66330005    0.64271023    0.05874985    0.10610000
opls_146-215    H    0.64015999    0.78775998    0.73338954    0.11490000
opls_146-216    H    0.58027994    0.84903023    0.75261954    0.11510000
opls_146-217    H    0.57472007    0.79720004    0.17200008    0.11340000
opls_146-218    H    0.63430011    0.73761018    0.15434983    0.11740000
opls_146-219    H    0.50556988    0.77022991    0.96946987    0.10970000
opls_146-220    H    0.59621993    0.95136003    0.97778012    0.11290000
opls_146-221    H    0.59369997    0.07312000    0.99757016    0.11790000
opls_146-222    H    0.40598000    0.05884980    0.04794954    0.11270000
opls_146-223    H    0.40899989    0.93676000    0.04604962    0.11940000
opls_146-224    H    0.49479993    0.24075994    0.00984985    0.11070000
opls_146-225    H    0.41218994    0.86392014    0.82216970    0.11060000
opls_146-226    H    0.35401989    0.79849016    0.83281043    0.11210000
opls_146-227    H    0.39451993    0.68991975    0.18024007    0.11360000
opls_146-228    H    0.45272001    0.75697992    0.17218977    0.11120000
opls_144-229    H    0.30038009    0.78252985    0.98376992    0.10620000
opls_146-230    H    0.23640994    0.75640989    0.10235959    0.11440000
opls_146-231    H    0.18161013    0.68149990    0.10690012    0.11150000
opls_146-232    H    0.24192004    0.52939007    0.88114035    0.11500000
opls_146-233    H    0.29765994    0.60144991    0.88758983    0.11070000
opls_146-234    H    0.29460001    0.46400004    0.19796961    0.11390000
opls_146-235    H    0.23307002    0.51701997    0.19185034    0.11400000
opls_146-236    H    0.19616988    0.36325998    0.91113955    0.11270000
opls_146-237    H    0.25655014    0.30584985    0.92800996    0.11310000
opls_146-238    H    0.13978991    0.63851004    0.92945020    0.11020000
opls_146-239    H    0.14233989    0.39293020    0.05041953    0.12090000
opls_185-240    H    0.07343994    0.36668988    0.11526958    0.05740000
opls_185-241    H    0.09610009    0.34106006    0.95915031    0.05680000
opls_185-242    H    0.03885010    0.33915023    0.83771027    0.05610000
opls_185-243    H    0.03825007    0.28084024    0.97960978    0.05600000
opls_185-244    H    0.91624000    0.34243981    0.91254968    0.05730000
opls_185-245    H    0.93368006    0.34016020    0.08447951    0.05710000
opls_185-246    H    0.97610003    0.36695006    0.81983018    0.05620000
opls_185-247    H    0.97461998    0.28707011    0.91211008    0.05710000
opls_185-248    H    0.06619009    0.68503019    0.91124995    0.05730000
opls_185-249    H    0.08924006    0.66030023    0.06474969    0.05610000
opls_185-250    H    0.02899994    0.69564002    0.12322956    0.05710000
opls_185-251    H    0.03080003    0.60373976    0.14250974    0.05680000
opls_185-252    H    0.97204997    0.72680010    0.97812036    0.05710000
opls_185-253    H    0.96645007    0.67578987    0.12908989    0.05610000
opls_185-254    H    0.93643997    0.63462021    0.85166004    0.05680000
opls_185-255    H    0.91119008    0.67607975    0.98660022    0.05430000
opls_146-256    H    0.85929003    0.62611023    0.01642980    0.11840000
opls_146-257    H    0.86543992    0.37306008    0.00118030    0.11460000
opls_144-258    H    0.19710996    0.23466989    0.47408969    0.10440000
opls_146-259    H    0.10664009    0.32261015    0.68123971    0.11390000
opls_146-260    H    0.05101001    0.24957005    0.68547011    0.11360000
opls_146-261    H    0.08447014    0.15709003    0.31089967    0.11390000
opls_146-262    H    0.14112009    0.22729996    0.31049018    0.11760000
opls_146-263    H    0.93581992    0.22994013    0.71004958    0.11640000
opls_146-264    H    0.87729008    0.29261983    0.70958991    0.11840000
opls_146-265    H    0.85196011    0.21208996    0.31560982    0.11340000
opls_146-266    H    0.91086003    0.14822000    0.31804970    0.11340000
opls_144-267    H    0.83713009    0.37093002    0.64391987    0.09490000
opls_146-268    H    0.25833994    0.48692005    0.39564013    0.24180000
opls_146-269    H    0.20242987    0.42217994    0.40585030    0.11380000
opls_146-270    H    0.26304008    0.25099998    0.56780983    0.11400000
opls_146-271    H    0.31808013    0.32255996    0.59354049    0.11570000
opls_146-272    H    0.30484000    0.63580995    0.33583042    0.11380000
opls_146-273    H    0.24365006    0.69251023    0.33024007    0.11510000
opls_146-274    H    0.20959992    0.57666003    0.67705046    0.11290000
opls_146-275    H    0.27192012    0.52402985    0.68856036    0.11770000
opls_144-276    H    0.16309012    0.64252995    0.55903991    0.10620000
opls_146-277    H    0.13997008    0.78764987    0.23402987    0.11520000
opls_146-278    H    0.08007001    0.84888990    0.25333012    0.11810000
opls_146-279    H    0.07455992    0.79701976    0.67271970    0.11290000
opls_146-280    H    0.13414996    0.73750006    0.65499016    0.11770000
opls_146-281    H    0.00538998    0.77005987    0.47048958    0.10990000
opls_146-282    H    0.09603002    0.95122021    0.47836023    0.11090000
opls_146-283    H    0.09351006    0.07300016    0.49779999    0.11380000
opls_146-284    H    0.90580010    0.05872022    0.54821049    0.11490000
opls_146-285    H    0.90880998    0.93660994    0.54671002    0.11780000
opls_146-286    H    0.99459000    0.24062012    0.50943033    0.11050000
opls_146-287    H    0.91210986    0.86365024    0.32267955    0.11010000
opls_146-288    H    0.85394009    0.79821975    0.33306034    0.11650000
opls_146-289    H    0.89423994    0.68992999    0.68115039    0.11520000
opls_146-290    H    0.95245003    0.75697992    0.67329981    0.11390000
opls_144-291    H    0.80022995    0.78237005    0.48341965    0.10590000
opls_146-292    H    0.73628010    0.75636994    0.60233952    0.11440000
opls_146-293    H    0.68150002    0.68143025    0.60742001    0.11010000
opls_146-294    H    0.74172012    0.52925999    0.38136015    0.11790000
opls_146-295    H    0.79747003    0.60127988    0.38775041    0.11290000
opls_146-296    H    0.79450992    0.46396009    0.69836003    0.11290000
opls_146-297    H    0.73296992    0.51698975    0.69261010    0.11520000
opls_146-298    H    0.69595995    0.36333014    0.41191035    0.11190000
opls_146-299    H    0.75635995    0.30595023    0.42826990    0.11660000
opls_146-300    H    0.63967007    0.63841990    0.42991991    0.11390000
opls_146-301    H    0.64209994    0.39293993    0.55172026    0.12090000
opls_185-302    H    0.57296002    0.36647017    0.61531976    0.05730000
opls_185-303    H    0.59591991    0.34110001    0.45957987    0.05680000
opls_185-304    H    0.53865992    0.34024010    0.33676984    0.05610000
opls_185-305    H    0.53821003    0.28073986    0.47670019    0.05600000
opls_185-306    H    0.41603007    0.34222009    0.41145971    0.05860000
opls_185-307    H    0.43321989    0.33990976    0.58366956    0.05710000
opls_185-308    H    0.47592986    0.36622997    0.31947991    0.05630000
opls_185-309    H    0.47438002    0.28648984    0.41224959    0.05710000
opls_185-310    H    0.56605996    0.68501995    0.41199968    0.05730000
opls_185-311    H    0.58905989    0.66015990    0.56552049    0.05610000
opls_185-312    H    0.52870994    0.69543976    0.62348047    0.05710000
opls_185-313    H    0.53063987    0.60354975    0.64292023    0.05680000
opls_185-314    H    0.47191011    0.72634018    0.47678048    0.05710000
opls_185-315    H    0.46621011    0.67584006    0.62836023    0.05610000
opls_185-316    H    0.43648001    0.63346018    0.35124955    0.05680000
opls_185-317    H    0.41104994    0.67565005    0.48480971    0.05430000
opls_146-318    H    0.35912987    0.62585978    0.51786001    0.11890000
opls_146-319    H    0.36508012    0.37270004    0.49965976    0.11760000
