#======================================================================
# Crystal Data Generated By AuToFF
#----------------------------------------------------------------------

data_AuToFF_phase_1

_cell_length_a                         42.2841
_cell_length_b                         42.2841
_cell_length_c                         3.5589
_cell_angle_alpha                      90.00
_cell_angle_beta                       90.00
_cell_angle_gamma                      120.00
_symmetry_space_group_name_H-M_alt     'P 1'
_symmetry_space_group_IT_number        1

loop_
_space_group_symop_operation_xyz
   'x, y, z'

loop_
   _atom_site_label
   _atom_site_type_symbol
   _atom_site_fract_x
   _atom_site_fract_y
   _atom_site_fract_z
   _atom_site_charge
opls_145-0    C    0.96386997    0.48472000    0.22651100    -0.11010000
opls_166-1    C    0.97904998    0.46381014    0.21678890    0.18510000
opls_145-2    C    0.01505997    0.47945007    0.21377954    -0.24680000
opls_234-3    C    0.92609011    0.47008009    0.24786872    0.31080000
opls_142-4    C    0.84919996    0.39707011    0.59987918    0.01600000
opls_145-5    C    0.81205997    0.38439011    0.61504116    0.00950000
opls_145-6    C    0.79847996    0.40468007    0.48520891    -0.22530000
opls_145-7    C    0.76319996    0.39213006    0.49459103    -0.22530000
opls_145-8    C    0.74048017    0.35927016    0.64523027    0.03300000
opls_145-9    C    0.75457006    0.33934013    0.78128916    -0.22530000
opls_145-10    C    0.78984000    0.35159002    0.76086993    -0.22530000
opls_145-11    C    0.70253996    0.34593996    0.65671134    0.03200000
opls_145-12    C    0.68955008    0.36863003    0.65841974    -0.15740000
opls_145-13    C    0.03613003    0.51528000    0.22651100    -0.11010000
opls_166-14    C    0.02095016    0.53619013    0.21678890    0.18510000
opls_145-15    C    0.98494011    0.52056004    0.21377954    -0.24670000
opls_234-16    C    0.07391003    0.52992018    0.24786029    0.31070000
opls_142-17    C    0.15080018    0.60293016    0.59987918    0.01600000
opls_145-18    C    0.18793988    0.61561999    0.61504116    0.00950000
opls_145-19    C    0.20152018    0.59532020    0.48520048    -0.22520000
opls_145-20    C    0.23680018    0.60787021    0.49459103    -0.22530000
opls_145-21    C    0.25951996    0.64073011    0.64521903    0.03300000
opls_145-22    C    0.24543008    0.66066015    0.78128916    -0.22530000
opls_145-23    C    0.21016000    0.64840998    0.76086993    -0.22530000
opls_145-24    C    0.29746004    0.65406004    0.65670010    0.03200000
opls_145-25    C    0.31044992    0.63136997    0.65841974    -0.15740000
opls_182-26    C    0.03052016    0.59342010    0.35385091    0.05670000
opls_182-27    C    0.96947998    0.40658017    0.35385934    0.05670000
opls_136-28    C    0.06169019    0.62753017    0.47591110    -0.25750000
opls_135-29    C    0.05186004    0.65403000    0.60479081    -0.39260000
opls_136-30    C    0.93830995    0.37247010    0.47591110    -0.25750000
opls_135-31    C    0.94813996    0.34597000    0.60479081    -0.39260000
opls_145-32    C    0.51528003    0.47914995    0.22651100    -0.11010000
opls_166-33    C    0.53619003    0.51524013    0.21678890    0.18510000
opls_145-34    C    0.52054994    0.53561011    0.21377954    -0.24680000
opls_234-35    C    0.52991996    0.45601011    0.24786872    0.31070000
opls_142-36    C    0.60293015    0.45213017    0.59987918    0.01600000
opls_145-37    C    0.61560989    0.42766999    0.61504116    0.00950000
opls_145-38    C    0.59531995    0.39379996    0.48520891    -0.22530000
opls_145-39    C    0.60787012    0.37107002    0.49459103    -0.22530000
opls_145-40    C    0.64073003    0.38121008    0.64523027    0.03300000
opls_145-41    C    0.66066001    0.41523003    0.78128916    -0.22530000
opls_145-42    C    0.64841000    0.43824998    0.76086993    -0.22530000
opls_145-43    C    0.65405990    0.35659997    0.65671134    0.03200000
opls_145-44    C    0.63137008    0.32091996    0.65841974    -0.15740000
opls_145-45    C    0.48471997    0.52085005    0.22651100    -0.11010000
opls_166-46    C    0.46381011    0.48476014    0.21678890    0.18510000
opls_145-47    C    0.47943994    0.46438006    0.21377954    -0.24680000
opls_234-48    C    0.47008017    0.54399016    0.24786029    0.31070000
opls_142-49    C    0.39706999    0.54787010    0.59987918    0.01600000
opls_145-50    C    0.38437999    0.57232018    0.61504116    0.00950000
opls_145-51    C    0.40468005    0.60620004    0.48520048    -0.22530000
opls_145-52    C    0.39212988    0.62892998    0.49459103    -0.22530000
opls_145-53    C    0.35927011    0.61879019    0.64521903    0.03300000
opls_145-54    C    0.33933999    0.58476997    0.78128916    -0.22530000
opls_145-55    C    0.35159000    0.56175002    0.76086993    -0.22530000
opls_145-56    C    0.34594010    0.64340003    0.65670010    0.03200000
opls_145-57    C    0.36862992    0.67908004    0.65841974    -0.15740000
opls_182-58    C    0.40658003    0.43710004    0.35385091    0.05670000
opls_182-59    C    0.59341997    0.56289996    0.35385934    0.05670000
opls_136-60    C    0.37247011    0.43416004    0.47591110    -0.25750000
opls_135-61    C    0.34597009    0.39783009    0.60479081    -0.39260000
opls_136-62    C    0.62752989    0.56583996    0.47591110    -0.25750000
opls_135-63    C    0.65403005    0.60217018    0.60479081    -0.39260000
opls_145-64    C    0.52085000    0.03613005    0.22651100    -0.11010000
opls_166-65    C    0.48475989    0.02095000    0.21678890    0.18510000
opls_145-66    C    0.46438999    0.98494010    0.21377954    -0.24680000
opls_234-67    C    0.54399006    0.07391006    0.24786872    0.31070000
opls_142-68    C    0.54787003    0.15079999    0.59987918    0.01600000
opls_145-69    C    0.57232990    0.18793990    0.61504116    0.00950000
opls_145-70    C    0.60620009    0.20151997    0.48520891    -0.22530000
opls_145-71    C    0.62892992    0.23679992    0.49459103    -0.22530000
opls_145-72    C    0.61878993    0.25952003    0.64523027    0.03300000
opls_145-73    C    0.58477006    0.24543012    0.78128916    -0.22530000
opls_145-74    C    0.56175000    0.21016000    0.76086993    -0.22530000
opls_145-75    C    0.64340013    0.29746007    0.65671134    0.03200000
opls_145-76    C    0.67908007    0.31045001    0.65841974    -0.15740000
opls_145-77    C    0.47915014    0.96387022    0.22651100    -0.11010000
opls_166-78    C    0.51524011    0.97905000    0.21678890    0.18510000
opls_145-79    C    0.53561994    0.01505990    0.21377954    -0.24680000
opls_234-80    C    0.45601007    0.92609021    0.24786029    0.31080000
opls_142-81    C    0.45212997    0.84920001    0.59987918    0.01600000
opls_145-82    C    0.42768003    0.81206010    0.61504116    0.00950000
opls_145-83    C    0.39379991    0.79848003    0.48520048    -0.22530000
opls_145-84    C    0.37107008    0.76320008    0.49459103    -0.22530000
opls_145-85    C    0.38121007    0.74047997    0.64521903    0.03300000
opls_145-86    C    0.41523007    0.75457016    0.78128916    -0.22530000
opls_145-87    C    0.43825000    0.78984000    0.76086993    -0.22530000
opls_145-88    C    0.35660000    0.70254020    0.65670010    0.03200000
opls_145-89    C    0.32091993    0.68954999    0.65841974    -0.15740000
opls_182-90    C    0.56290018    0.96948013    0.35385091    0.05670000
opls_182-91    C    0.43709996    0.03052014    0.35385934    0.05670000
opls_136-92    C    0.56584007    0.93831006    0.47591110    -0.25740000
opls_135-93    C    0.60217001    0.94814018    0.60479081    -0.39250000
opls_136-94    C    0.43415993    0.06168994    0.47591110    -0.25750000
opls_135-95    C    0.39783012    0.05186009    0.60479081    -0.39260000
opls_236-96    O    0.91334008    0.48597999    0.10658911    -0.41430000
opls_179-97    O    0.95793990    0.42792996    0.18044902    -0.18870000
opls_236-98    O    0.08665992    0.51402001    0.10658911    -0.41430000
opls_179-99    O    0.04206010    0.57207004    0.18044902    -0.18870000
opls_236-100    O    0.51402010    0.42736004    0.10658911    -0.41430000
opls_179-101    O    0.57207008    0.53001002    0.18044902    -0.18870000
opls_236-102    O    0.48597990    0.57263996    0.10658911    -0.41430000
opls_179-103    O    0.42792992    0.46998998    0.18044902    -0.18870000
opls_236-104    O    0.57264006    0.08665997    0.10658911    -0.41420000
opls_179-105    O    0.46999002    0.04206002    0.18044902    -0.18870000
opls_236-106    O    0.42735994    0.91334003    0.10658911    -0.41410000
opls_179-107    O    0.53001012    0.95794026    0.18044902    -0.18870000
opls_238-108    N    0.90539001    0.43971998    0.43206890    -0.25610000
opls_750-109    N    0.86983010    0.42655008    0.44548035    -0.04490000
opls_238-110    N    0.09460999    0.56028002    0.43206890    -0.25600000
opls_750-111    N    0.13018020    0.57345019    0.44548035    -0.04490000
opls_238-112    N    0.56028012    0.46567010    0.43206890    -0.25610000
opls_750-113    N    0.57345009    0.44328015    0.44548035    -0.04490000
opls_238-114    N    0.43972002    0.53433017    0.43206890    -0.25610000
opls_750-115    N    0.42654999    0.55672996    0.44548035    -0.04490000
opls_238-116    N    0.53432987    0.09460992    0.43206890    -0.25610000
opls_750-117    N    0.55671994    0.13017005    0.44548035    -0.04490000
opls_238-118    N    0.46567013    0.90539008    0.43206890    -0.25600000
opls_750-119    N    0.44327018    0.86982012    0.44548035    -0.04490000
opls_910-120    H    0.91592007    0.42728003    0.58575964    0.23860000
opls_144-121    H    0.85924998    0.38157000    0.71903116    0.10620000
opls_146-122    H    0.81502988    0.43002996    0.36729045    0.21850000
opls_146-123    H    0.75406004    0.40809004    0.37013122    0.21850000
opls_146-124    H    0.73879992    0.31460003    0.91461969    0.21850000
opls_146-125    H    0.79987001    0.33568001    0.86695889    0.21850000
opls_146-126    H    0.70718001    0.39584998    0.65845907    0.21850000
opls_910-127    H    0.08407993    0.57271997    0.58575964    0.23860000
opls_144-128    H    0.14075002    0.61843000    0.71903116    0.10620000
opls_146-129    H    0.18497012    0.56997004    0.36729045    0.21850000
opls_146-130    H    0.24593996    0.59190996    0.37013122    0.21850000
opls_146-131    H    0.26120008    0.68539997    0.91461969    0.21850000
opls_146-132    H    0.20012999    0.66431999    0.86695889    0.21850000
opls_146-133    H    0.29281999    0.60415002    0.65845907    0.21840000
opls_146-134    H    0.02691009    0.46362008    0.20021074    0.21850000
opls_146-135    H    0.97309005    0.53638020    0.20021074    0.21870000
opls_185-136    H    0.01405000    0.58029007    0.60223946    0.07280000
opls_185-137    H    0.01400006    0.59802999    0.15863048    0.08200000
opls_185-138    H    0.98595000    0.41970993    0.60223946    0.07690000
opls_185-139    H    0.98599994    0.40197001    0.15863048    0.08200000
opls_140-140    H    0.08124017    0.63960010    0.25076007    0.10230000
opls_140-141    H    0.07534992    0.62177006    0.69837028    0.09480000
opls_140-142    H    0.02812997    0.64215013    0.77903004    0.10280000
opls_140-143    H    0.04684010    0.66625996    0.35777909    0.11100000
opls_140-144    H    0.07349996    0.67481014    0.76741971    0.10280000
opls_140-145    H    0.91875997    0.36040017    0.25076007    0.10230000
opls_140-146    H    0.92465008    0.37822994    0.69837028    0.09470000
opls_140-147    H    0.95315990    0.33374004    0.35777909    0.11100000
opls_140-148    H    0.92650018    0.32519013    0.76743095    0.10280000
opls_140-149    H    0.97187017    0.35785014    0.77903004    0.10280000
opls_910-150    H    0.57272008    0.48864008    0.58575964    0.23860000
opls_144-151    H    0.61842994    0.47767995    0.71903116    0.10620000
opls_146-152    H    0.56997011    0.38500018    0.36729045    0.21850000
opls_146-153    H    0.59191008    0.34597000    0.37013122    0.21850000
opls_146-154    H    0.68539986    0.42419994    0.91461969    0.21850000
opls_146-155    H    0.66432011    0.46419000    0.86695889    0.21850000
opls_146-156    H    0.60414997    0.31133015    0.65845907    0.21850000
opls_910-157    H    0.42728006    0.51136019    0.58575964    0.23860000
opls_144-158    H    0.38157006    0.52232005    0.71903116    0.10620000
opls_146-159    H    0.43003003    0.61500010    0.36729045    0.21860000
opls_146-160    H    0.40808992    0.65403000    0.37013122    0.21850000
opls_146-161    H    0.31460014    0.57580006    0.91461969    0.21850000
opls_146-162    H    0.33567989    0.53581000    0.86695889    0.21850000
opls_146-163    H    0.39585017    0.68867012    0.65845907    0.21840000
opls_146-164    H    0.53638009    0.56329020    0.20021074    0.21850000
opls_146-165    H    0.46362004    0.43671008    0.20021074    0.21870000
opls_185-166    H    0.41970989    0.43375998    0.60223946    0.07290000
opls_185-167    H    0.40197001    0.41597008    0.15863048    0.08200000
opls_185-168    H    0.58029011    0.56624002    0.60223946    0.07690000
opls_185-169    H    0.59803012    0.58403019    0.15863048    0.08200000
opls_140-170    H    0.36039990    0.44164002    0.25076007    0.10230000
opls_140-171    H    0.37822988    0.45357996    0.69837028    0.09470000
opls_140-172    H    0.35785007    0.38597999    0.77903004    0.10280000
opls_140-173    H    0.33373994    0.38058008    0.35777909    0.11100000
opls_140-174    H    0.32518995    0.39869003    0.76741971    0.10280000
opls_140-175    H    0.63960010    0.55835998    0.25076007    0.10230000
opls_140-176    H    0.62177012    0.54642004    0.69837028    0.09470000
opls_140-177    H    0.66626019    0.61942019    0.35777909    0.11100000
opls_140-178    H    0.67481005    0.60130997    0.76743095    0.10280000
opls_140-179    H    0.64214993    0.61402001    0.77903004    0.10280000
opls_910-180    H    0.51135986    0.08407989    0.58575964    0.23870000
opls_144-181    H    0.52232008    0.14075005    0.71903116    0.10620000
opls_146-182    H    0.61500015    0.18497014    0.36729045    0.21850000
opls_146-183    H    0.65402988    0.24593996    0.37013122    0.21850000
opls_146-184    H    0.57579998    0.26120003    0.91461969    0.21860000
opls_146-185    H    0.53581011    0.20012999    0.86695889    0.21850000
opls_146-186    H    0.68867016    0.29282014    0.65845907    0.21840000
opls_910-187    H    0.48864014    0.91592011    0.58575964    0.23860000
opls_144-188    H    0.47768006    0.85925023    0.71903116    0.10620000
opls_146-189    H    0.38499998    0.81503013    0.36729045    0.21850000
opls_146-190    H    0.34597012    0.75406004    0.37013122    0.21860000
opls_146-191    H    0.42420002    0.73879997    0.91461969    0.21850000
opls_146-192    H    0.46418989    0.79987001    0.86695889    0.21850000
opls_146-193    H    0.31132997    0.70718013    0.65845907    0.21840000
opls_146-194    H    0.43670996    0.97309000    0.20021074    0.21850000
opls_146-195    H    0.56329004    0.02691000    0.20021074    0.21870000
opls_185-196    H    0.56624001    0.98595023    0.60223946    0.07290000
opls_185-197    H    0.58403006    0.98600020    0.15863048    0.08200000
opls_185-198    H    0.43376013    0.01405004    0.60223946    0.07690000
opls_185-199    H    0.41597007    0.01400007    0.15863048    0.08200000
opls_140-200    H    0.55836007    0.91876016    0.25076007    0.10230000
opls_140-201    H    0.54642009    0.92465025    0.69837028    0.09470000
opls_140-202    H    0.61402010    0.97187014    0.77903004    0.10290000
opls_140-203    H    0.61942010    0.95316024    0.35777909    0.11100000
opls_140-204    H    0.60130999    0.92650011    0.76741971    0.10280000
opls_140-205    H    0.44164006    0.08124012    0.25076007    0.10230000
opls_140-206    H    0.45358004    0.07535002    0.69837028    0.09470000
opls_140-207    H    0.38058004    0.04684004    0.35777909    0.11100000
opls_140-208    H    0.39869001    0.07349989    0.76743095    0.10280000
opls_140-209    H    0.38598004    0.02813013    0.77903004    0.10280000
