#======================================================================
# Crystal Data Generated By AuToFF
#----------------------------------------------------------------------

data_AuToFF_phase_1

_cell_length_a                         40.3490
_cell_length_b                         40.3490
_cell_length_c                         7.9215
_cell_angle_alpha                      90.00
_cell_angle_beta                       90.00
_cell_angle_gamma                      120.00
_symmetry_space_group_name_H-M_alt     'P 1'
_symmetry_space_group_IT_number        1

loop_
_space_group_symop_operation_xyz
   'x, y, z'

loop_
   _atom_site_label
   _atom_site_type_symbol
   _atom_site_fract_x
   _atom_site_fract_y
   _atom_site_fract_z
   _atom_site_charge
opls_145-0    C    0.65247009    0.36048010    0.70281007    -0.05330000
opls_145-1    C    0.62573996    0.35060009    0.57281954    -0.07280000
opls_145-2    C    0.60935007    0.37315007    0.54034968    -0.11080000
opls_700-3    C    0.61949993    0.40551998    0.63913022    0.06320000
opls_145-4    C    0.64526983    0.41480989    0.77196996    -0.07680000
opls_145-5    C    0.66188994    0.39247998    0.80397021    -0.07080000
opls_142-6    C    0.60336010    0.43080010    0.60422016    0.04460000
opls_145-7    C    0.55486012    0.44630009    0.45221991    0.23490000
opls_145-8    C    0.57353007    0.48816996    0.51174020    -0.09820000
opls_145-9    C    0.55065007    0.50934000    0.50641040    -0.07150000
opls_700-10    C    0.50910984    0.48862985    0.44156031    0.07890000
opls_145-11    C    0.49043989    0.44675998    0.38202992    -0.07150000
opls_145-12    C    0.51331989    0.42558994    0.38735972    -0.09820000
opls_145-13    C    0.63951996    0.29198993    0.70281007    -0.05330000
opls_145-14    C    0.64940005    0.27514004    0.57281954    -0.07280000
opls_145-15    C    0.62684994    0.23620006    0.54034968    -0.11080000
opls_700-16    C    0.59447992    0.21398004    0.63913022    0.06320000
opls_145-17    C    0.58519005    0.23045989    0.77196996    -0.07680000
opls_145-18    C    0.60751989    0.26940989    0.80397021    -0.07060000
opls_142-19    C    0.56920004    0.17256003    0.60422016    0.04460000
opls_145-20    C    0.55370006    0.10855999    0.45221991    0.23490000
opls_145-21    C    0.51182996    0.08536010    0.51174020    -0.09820000
opls_145-22    C    0.49066001    0.04131011    0.50641040    -0.07150000
opls_700-23    C    0.51136992    0.02048006    0.44156031    0.07890000
opls_145-24    C    0.55324001    0.04367995    0.38202992    -0.07150000
opls_145-25    C    0.57440996    0.08772994    0.38735972    -0.09820000
opls_145-26    C    0.70800995    0.34752997    0.70281007    -0.05330000
opls_145-27    C    0.72485999    0.37425987    0.57281954    -0.07280000
opls_145-28    C    0.76379999    0.39064987    0.54034968    -0.11080000
opls_700-29    C    0.78601990    0.38049999    0.63913022    0.06320000
opls_145-30    C    0.76953999    0.35472993    0.77196996    -0.07680000
opls_145-31    C    0.73059017    0.33811012    0.80397021    -0.07060000
opls_142-32    C    0.82743986    0.39663987    0.60422016    0.04460000
opls_145-33    C    0.89144007    0.44513992    0.45221991    0.23490000
opls_145-34    C    0.91463996    0.42646994    0.51174020    -0.09820000
opls_145-35    C    0.95868991    0.44934989    0.50641040    -0.07150000
opls_700-36    C    0.97951999    0.49089009    0.44156031    0.07890000
opls_145-37    C    0.95632010    0.50956007    0.38202992    -0.07150000
opls_145-38    C    0.91227015    0.48668012    0.38735972    -0.09820000
opls_145-39    C    0.34752991    0.63951990    0.70281007    -0.05330000
opls_145-40    C    0.37426004    0.64939991    0.57281954    -0.07280000
opls_145-41    C    0.39064993    0.62684993    0.54034968    -0.11080000
opls_700-42    C    0.38050007    0.59448002    0.63913022    0.06320000
opls_145-43    C    0.35473017    0.58519011    0.77196996    -0.07680000
opls_145-44    C    0.33811006    0.60752002    0.80397021    -0.07080000
opls_142-45    C    0.39663990    0.56919990    0.60422016    0.04460000
opls_145-46    C    0.44513988    0.55369991    0.45221991    0.23490000
opls_145-47    C    0.42646993    0.51183004    0.51174020    -0.09820000
opls_145-48    C    0.44934993    0.49066000    0.50641040    -0.07150000
opls_700-49    C    0.49089002    0.51136986    0.44156031    0.07890000
opls_145-50    C    0.50956011    0.55324002    0.38202992    -0.07150000
opls_145-51    C    0.48668011    0.57441006    0.38735972    -0.09820000
opls_145-52    C    0.36048004    0.70801007    0.70281007    -0.05330000
opls_145-53    C    0.35059995    0.72485996    0.57281954    -0.07270000
opls_145-54    C    0.37315006    0.76379994    0.54034968    -0.11080000
opls_700-55    C    0.40552008    0.78601996    0.63913022    0.06320000
opls_145-56    C    0.41480995    0.76954011    0.77196996    -0.07680000
opls_145-57    C    0.39248011    0.73059011    0.80397021    -0.07060000
opls_142-58    C    0.43079996    0.82743997    0.60422016    0.04460000
opls_145-59    C    0.44629994    0.89144001    0.45221991    0.23490000
opls_145-60    C    0.48817004    0.91463990    0.51174020    -0.09820000
opls_145-61    C    0.50933999    0.95868989    0.50641040    -0.07150000
opls_700-62    C    0.48863008    0.97951994    0.44156031    0.07890000
opls_145-63    C    0.44675999    0.95632005    0.38202992    -0.07150000
opls_145-64    C    0.42559004    0.91227006    0.38735972    -0.09820000
opls_145-65    C    0.29199005    0.65247003    0.70281007    -0.05330000
opls_145-66    C    0.27513987    0.62573984    0.57281954    -0.07280000
opls_145-67    C    0.23619987    0.60934984    0.54034968    -0.11080000
opls_700-68    C    0.21398010    0.61950001    0.63913022    0.06330000
opls_145-69    C    0.23046001    0.64527007    0.77196996    -0.07670000
opls_145-70    C    0.26940983    0.66188988    0.80397021    -0.07060000
opls_142-71    C    0.17255999    0.60335985    0.60422016    0.04460000
opls_145-72    C    0.10855993    0.55486008    0.45221991    0.23490000
opls_145-73    C    0.08536004    0.57353006    0.51174020    -0.09820000
opls_145-74    C    0.04131009    0.55065011    0.50641040    -0.07150000
opls_700-75    C    0.02048001    0.50910991    0.44156031    0.07900000
opls_145-76    C    0.04367990    0.49043993    0.38202992    -0.07150000
opls_145-77    C    0.08772985    0.51331988    0.38735972    -0.09820000
opls_146-78    H    0.61734984    0.32401985    0.49320962    0.04940000
opls_146-79    H    0.58772996    0.36519003    0.43354036    0.04940000
opls_146-80    H    0.65272993    0.44074995    0.85459951    0.04940000
opls_146-81    H    0.68313992    0.40012008    0.91213028    0.04940000
opls_144-82    H    0.61047001    0.45602986    0.69101938    0.02920000
opls_146-83    H    0.60427991    0.50349996    0.55975005    0.04950000
opls_146-84    H    0.56446992    0.54032995    0.55048034    0.04940000
opls_146-85    H    0.45967990    0.43142998    0.33402007    0.04940000
opls_146-86    H    0.49950005    0.39459999    0.34329988    0.04940000
opls_146-87    H    0.67598003    0.29333010    0.49320962    0.04940000
opls_146-88    H    0.63481007    0.22253991    0.43354036    0.04940000
opls_146-89    H    0.55925002    0.21197994    0.85459951    0.04940000
opls_146-90    H    0.59987995    0.28301996    0.91213028    0.04940000
opls_144-91    H    0.54397015    0.15444008    0.69101938    0.02920000
opls_146-92    H    0.49649992    0.10077995    0.55975005    0.04940000
opls_146-93    H    0.45966994    0.02413999    0.55048034    0.04940000
opls_146-94    H    0.56857001    0.02825008    0.33402007    0.04940000
opls_146-95    H    0.60540004    0.10490006    0.34329988    0.04940000
opls_146-96    H    0.70667014    0.38265004    0.49320962    0.04940000
opls_146-97    H    0.77745997    0.41227006    0.43354036    0.04940000
opls_146-98    H    0.78802005    0.34727012    0.85459951    0.04950000
opls_146-99    H    0.71697988    0.31685996    0.91213028    0.04940000
opls_144-100    H    0.84556009    0.38953006    0.69101938    0.02920000
opls_146-101    H    0.89921993    0.39572009    0.55975005    0.04940000
opls_146-102    H    0.97586015    0.43553006    0.55048034    0.04940000
opls_146-103    H    0.97174985    0.54031994    0.33402007    0.04940000
opls_146-104    H    0.89509991    0.50049995    0.34329988    0.04940000
opls_146-105    H    0.38265002    0.67597986    0.49320962    0.04940000
opls_146-106    H    0.41227004    0.63480997    0.43354036    0.04940000
opls_146-107    H    0.34727007    0.55925005    0.85459951    0.04940000
opls_146-108    H    0.31686008    0.59987992    0.91213028    0.04940000
opls_144-109    H    0.38952985    0.54396985    0.69101938    0.02920000
opls_146-110    H    0.39572009    0.49650004    0.55975005    0.04940000
opls_146-111    H    0.43553008    0.45967005    0.55048034    0.04940000
opls_146-112    H    0.54032010    0.56857002    0.33402007    0.04940000
opls_146-113    H    0.50049995    0.60540001    0.34329988    0.04940000
opls_146-114    H    0.32401997    0.70666990    0.49320962    0.04940000
opls_146-115    H    0.36518993    0.77746009    0.43354036    0.04940000
opls_146-116    H    0.44074998    0.78802006    0.85459951    0.04940000
opls_146-117    H    0.40012005    0.71698004    0.91213028    0.04940000
opls_144-118    H    0.45602985    0.84555992    0.69101938    0.02920000
opls_146-119    H    0.50350008    0.89922005    0.55975005    0.04940000
opls_146-120    H    0.54033006    0.97586001    0.55048034    0.04940000
opls_146-121    H    0.43142999    0.97174992    0.33402007    0.04940000
opls_146-122    H    0.39459996    0.89509994    0.34329988    0.04940000
opls_146-123    H    0.29332986    0.61734996    0.49320962    0.04940000
opls_146-124    H    0.22254003    0.58772994    0.43354036    0.04940000
opls_146-125    H    0.21197995    0.65272988    0.85459951    0.04940000
opls_146-126    H    0.28302012    0.68314004    0.91213028    0.04940000
opls_144-127    H    0.15443991    0.61046994    0.69101938    0.02920000
opls_146-128    H    0.10078007    0.60427991    0.55975005    0.04940000
opls_146-129    H    0.02413985    0.56446994    0.55048034    0.04940000
opls_146-130    H    0.02825015    0.45968006    0.33402007    0.04940000
opls_146-131    H    0.10490009    0.49950005    0.34329988    0.04940000
opls_750-132    N    0.57729996    0.42554988    0.45744998    -0.19230000
opls_750-133    N    0.57444994    0.15175001    0.45744998    -0.19230000
opls_750-134    N    0.84825010    0.42270011    0.45744998    -0.19230000
opls_750-135    N    0.42270004    0.57445012    0.45744998    -0.19230000
opls_750-136    N    0.42555006    0.84824999    0.45744998    -0.19230000
opls_750-137    N    0.15174990    0.57729989    0.45744998    -0.19230000
F2_P_3+3-138    P    0.66667000    0.33333009    0.72843022    0.20990000
F2_P_3+3-139    P    0.33333000    0.66666991    0.72843022    0.20990000
