#======================================================================
# Crystal Data Generated By AuToFF
#----------------------------------------------------------------------

data_AuToFF_phase_1

_cell_length_a                         23.1788
_cell_length_b                         23.1788
_cell_length_c                         4.2425
_cell_angle_alpha                      90.00
_cell_angle_beta                       90.00
_cell_angle_gamma                      120.00
_symmetry_space_group_name_H-M_alt     'P 1'
_symmetry_space_group_IT_number        1

loop_
_space_group_symop_operation_xyz
   'x, y, z'

loop_
   _atom_site_label
   _atom_site_type_symbol
   _atom_site_fract_x
   _atom_site_fract_y
   _atom_site_fract_z
   _atom_site_charge
opls_700-0    C    0.85706984    0.89504982    0.96276016    0.05770000
opls_145-1    C    0.82565003    0.90608979    0.21352033    -0.18190000
opls_145-2    C    0.75660012    0.86785019    0.26334944    -0.12580000
opls_700-3    C    0.71863972    0.80993981    0.08833942    0.05500000
opls_145-4    C    0.75143970    0.79046979    0.87590100    -0.11760000
opls_145-5    C    0.81947008    0.83198985    0.81756983    -0.13970000
opls_700-6    C    0.93031974    0.94790975    0.89760047    -0.00670000
opls_145-7    C    0.54434987    0.74996002    0.39447024    0.18030000
opls_145-8    C    0.50017025    0.68769015    0.26115969    -0.18290000
opls_145-9    C    0.43145015    0.65980004    0.30086034    -0.17770000
opls_916-10    C    0.40493984    0.69278992    0.47477902    0.17220000
opls_145-11    C    0.44984982    0.75342978    0.62000943    -0.18390000
opls_145-12    C    0.51868009    0.78147980    0.58093105    -0.18200000
opls_142-13    C    0.64588985    0.76875003    0.12914084    0.06610000
opls_700-14    C    0.10494995    0.96201994    0.96276016    0.05770000
opls_145-15    C    0.09390981    0.91955984    0.21352033    -0.18190000
opls_145-16    C    0.13215001    0.88874995    0.26334944    -0.12580000
opls_700-17    C    0.19005989    0.90870021    0.08833942    0.05500000
opls_145-18    C    0.20952998    0.96096980    0.87590100    -0.11760000
opls_145-19    C    0.16801001    0.98747997    0.81756983    -0.13970000
opls_700-20    C    0.05208999    0.98241008    0.89760047    -0.00670000
opls_145-21    C    0.25003979    0.79438990    0.39447024    0.18030000
opls_145-22    C    0.31231019    0.81247998    0.26115969    -0.18290000
opls_145-23    C    0.34020006    0.77164989    0.30086034    -0.17770000
opls_916-24    C    0.30721001    0.71214984    0.47477902    0.17240000
opls_145-25    C    0.24657019    0.69642009    0.62000943    -0.18400000
opls_145-26    C    0.21852012    0.73719987    0.58093105    -0.18200000
opls_142-27    C    0.23124999    0.87714008    0.12914084    0.06600000
opls_700-28    C    0.03798021    0.14293023    0.96276016    0.05770000
opls_145-29    C    0.08043990    0.17434987    0.21352033    -0.18190000
opls_145-30    C    0.11124986    0.24339986    0.26334944    -0.12580000
opls_700-31    C    0.09129996    0.28135999    0.08833942    0.05500000
opls_145-32    C    0.03903007    0.24855991    0.87590100    -0.11760000
opls_145-33    C    0.01251991    0.18053018    0.81756983    -0.13970000
opls_700-34    C    0.01759027    0.06968017    0.89760047    -0.00670000
opls_145-35    C    0.20560991    0.45565008    0.39447024    0.18030000
opls_145-36    C    0.18751999    0.49982987    0.26115969    -0.18290000
opls_145-37    C    0.22835022    0.56855007    0.30086034    -0.17770000
opls_916-38    C    0.28785015    0.59506024    0.47477902    0.17220000
opls_145-39    C    0.30357999    0.55015012    0.62000943    -0.18400000
opls_145-40    C    0.26279998    0.48131983    0.58093105    -0.18200000
opls_142-41    C    0.12285973    0.35410989    0.12914084    0.06600000
opls_700-42    C    0.14293016    0.10495018    0.96276016    0.05770000
opls_145-43    C    0.17434997    0.09391021    0.21352033    -0.18190000
opls_145-44    C    0.24339988    0.13214981    0.26334944    -0.12580000
opls_700-45    C    0.28136028    0.19006019    0.08833942    0.05500000
opls_145-46    C    0.24856030    0.20953021    0.87590100    -0.11760000
opls_145-47    C    0.18052992    0.16801015    0.81756983    -0.13970000
opls_700-48    C    0.06968001    0.05208975    0.89760047    -0.00670000
opls_145-49    C    0.45565013    0.25003998    0.39447024    0.18030000
opls_145-50    C    0.49982975    0.31230985    0.26115969    -0.18290000
opls_145-51    C    0.56854985    0.34019996    0.30086034    -0.17770000
opls_916-52    C    0.59506016    0.30721008    0.47477902    0.17220000
opls_145-53    C    0.55015018    0.24657022    0.62000943    -0.18400000
opls_145-54    C    0.48131991    0.21852020    0.58093105    -0.18200000
opls_142-55    C    0.35411015    0.23124997    0.12914084    0.06600000
opls_700-56    C    0.89505005    0.03798006    0.96276016    0.05770000
opls_145-57    C    0.90609019    0.08044016    0.21352033    -0.18190000
opls_145-58    C    0.86784999    0.11125005    0.26334944    -0.12580000
opls_700-59    C    0.80994011    0.09129979    0.08833942    0.05500000
opls_145-60    C    0.79047002    0.03903020    0.87590100    -0.11760000
opls_145-61    C    0.83198999    0.01252003    0.81756983    -0.13960000
opls_700-62    C    0.94791001    0.01758992    0.89760047    -0.00670000
opls_145-63    C    0.74996021    0.20561010    0.39447024    0.18030000
opls_145-64    C    0.68768981    0.18752002    0.26115969    -0.18290000
opls_145-65    C    0.65979994    0.22835011    0.30086034    -0.17770000
opls_916-66    C    0.69278999    0.28785016    0.47477902    0.17240000
opls_145-67    C    0.75342981    0.30357991    0.62000943    -0.18390000
opls_145-68    C    0.78147988    0.26280013    0.58093105    -0.18190000
opls_142-69    C    0.76875001    0.12285992    0.12914084    0.06600000
opls_700-70    C    0.96201979    0.85706977    0.96276016    0.05770000
opls_145-71    C    0.91956010    0.82565013    0.21352033    -0.18190000
opls_145-72    C    0.88875014    0.75660014    0.26334944    -0.12580000
opls_700-73    C    0.90870004    0.71864001    0.08833942    0.05500000
opls_145-74    C    0.96096993    0.75144009    0.87590100    -0.11760000
opls_145-75    C    0.98748009    0.81946982    0.81756983    -0.13970000
opls_700-76    C    0.98240973    0.93031983    0.89760047    -0.00670000
opls_145-77    C    0.79439009    0.54434992    0.39447024    0.18030000
opls_145-78    C    0.81248001    0.50017013    0.26115969    -0.18290000
opls_145-79    C    0.77164978    0.43144993    0.30086034    -0.17770000
opls_916-80    C    0.71214985    0.40493976    0.47477902    0.17220000
opls_145-81    C    0.69642001    0.44984988    0.62000943    -0.18400000
opls_145-82    C    0.73720002    0.51868017    0.58093105    -0.18190000
opls_142-83    C    0.87714027    0.64589011    0.12914084    0.06600000
opls_750-84    N    0.61497980    0.78378982    0.34102062    -0.36450000
opls_750-85    N    0.21620968    0.83118979    0.34102062    -0.36470000
opls_750-86    N    0.16880984    0.38501990    0.34102062    -0.36460000
opls_750-87    N    0.38502020    0.21621018    0.34102062    -0.36460000
opls_750-88    N    0.78379032    0.16881021    0.34102062    -0.36470000
opls_750-89    N    0.83119016    0.61498010    0.34102062    -0.36470000
opls_239-90    N    0.33332973    0.66666982    0.49043960    -0.16680000
opls_239-91    N    0.66667027    0.33333018    0.49043960    -0.16690000
opls_146-92    H    0.73271006    0.88108011    0.44556040    0.10950000
opls_146-93    H    0.72439011    0.74354009    0.75105009    0.10640000
opls_146-94    H    0.84065998    0.81094013    0.67385032    0.22690000
opls_146-95    H    0.51787991    0.66052986    0.12353094    0.11410000
opls_146-96    H    0.39893998    0.61279014    0.19096995    0.09890000
opls_146-97    H    0.43160005    0.78032005    0.75369947    0.08940000
opls_146-98    H    0.55247009    0.82886980    0.68936948    0.10820000
opls_146-99    H    0.85801020    0.94593998    0.36388922    0.22070000
opls_144-100    H    0.61893010    0.72785020    0.96734001    0.11300000
opls_146-101    H    0.11891978    0.85162974    0.44556040    0.10960000
opls_146-102    H    0.25645982    0.98084981    0.75105009    0.10640000
opls_146-103    H    0.18906007    0.02971988    0.67385032    0.22690000
opls_146-104    H    0.33947008    0.85734974    0.12353094    0.11410000
opls_146-105    H    0.38721023    0.78615015    0.19096995    0.09890000
opls_146-106    H    0.21967973    0.65127983    0.75369947    0.08940000
opls_146-107    H    0.17112998    0.72359980    0.68936948    0.10820000
opls_146-108    H    0.05405984    0.91206984    0.36388922    0.22070000
opls_144-109    H    0.27215004    0.89107990    0.96734001    0.11300000
opls_146-110    H    0.14837017    0.26729014    0.44556040    0.10950000
opls_146-111    H    0.01915007    0.27561010    0.75105009    0.10640000
opls_146-112    H    0.97027995    0.15933998    0.67385032    0.22690000
opls_146-113    H    0.14264976    0.48211990    0.12353094    0.11420000
opls_146-114    H    0.21385003    0.60106021    0.19096995    0.09890000
opls_146-115    H    0.34872022    0.56840012    0.75369947    0.08940000
opls_146-116    H    0.27640011    0.44752989    0.68936948    0.10820000
opls_146-117    H    0.08792996    0.14199018    0.36388922    0.22070000
opls_144-118    H    0.10891985    0.38106990    0.96734001    0.11300000
opls_146-119    H    0.26728994    0.11891989    0.44556040    0.10950000
opls_146-120    H    0.27560989    0.25645991    0.75105009    0.10640000
opls_146-121    H    0.15934002    0.18905987    0.67385032    0.22690000
opls_146-122    H    0.48212009    0.33947014    0.12353094    0.11410000
opls_146-123    H    0.60106002    0.38720986    0.19096995    0.09890000
opls_146-124    H    0.56839995    0.21967995    0.75369947    0.08940000
opls_146-125    H    0.44752991    0.17113020    0.68936948    0.10820000
opls_146-126    H    0.14198980    0.05406002    0.36388922    0.22070000
opls_144-127    H    0.38106990    0.27214980    0.96734001    0.11300000
opls_146-128    H    0.88107997    0.14836976    0.44556040    0.10950000
opls_146-129    H    0.74354018    0.01915019    0.75105009    0.10650000
opls_146-130    H    0.81093993    0.97028012    0.67385032    0.22690000
opls_146-131    H    0.66052967    0.14264976    0.12353094    0.11410000
opls_146-132    H    0.61278977    0.21384985    0.19096995    0.09890000
opls_146-133    H    0.78032027    0.34872017    0.75369947    0.08940000
opls_146-134    H    0.82887002    0.27640020    0.68936948    0.10830000
opls_146-135    H    0.94594016    0.08793016    0.36388922    0.22070000
opls_144-136    H    0.72784996    0.10892010    0.96734001    0.11300000
opls_146-137    H    0.85162983    0.73270986    0.44556040    0.10950000
opls_146-138    H    0.98084993    0.72438990    0.75105009    0.10640000
opls_146-139    H    0.02972005    0.84066002    0.67385032    0.22700000
opls_146-140    H    0.85735024    0.51788010    0.12353094    0.11410000
opls_146-141    H    0.78614997    0.39893979    0.19096995    0.09890000
opls_146-142    H    0.65127978    0.43159988    0.75369947    0.08940000
opls_146-143    H    0.72359989    0.55247011    0.68936948    0.10820000
opls_146-144    H    0.91207004    0.85800982    0.36388922    0.22070000
opls_144-145    H    0.89108015    0.61893010    0.96734001    0.11300000
