#======================================================================
# Crystal Data Generated By AuToFF
#----------------------------------------------------------------------

data_AuToFF_phase_1

_cell_length_a                         36.1135
_cell_length_b                         36.1135
_cell_length_c                         3.4694
_cell_angle_alpha                      90.00
_cell_angle_beta                       90.00
_cell_angle_gamma                      120.00
_symmetry_space_group_name_H-M_alt     'P 1'
_symmetry_space_group_IT_number        1

loop_
_space_group_symop_operation_xyz
   'x, y, z'

loop_
   _atom_site_label
   _atom_site_type_symbol
   _atom_site_fract_x
   _atom_site_fract_y
   _atom_site_fract_z
   _atom_site_charge
opls_145-0    C    0.62393992    0.31408998    0.98885975    -0.15380000
opls_145-1    C    0.64281010    0.28992995    0.98896927    0.03000000
opls_145-2    C    0.62643003    0.38239999    0.98973021    0.03460000
opls_145-3    C    0.64574005    0.42212986    0.83676140    -0.23680000
opls_145-4    C    0.62654009    0.44573002    0.84252897    -0.24010000
opls_145-5    C    0.58724996    0.43000990    0.98856863    0.17230000
opls_145-6    C    0.56764014    0.39049010    0.14188044    -0.23890000
opls_145-7    C    0.58715020    0.36716012    0.14526143    -0.23690000
opls_142-8    C    0.53002999    0.44292013    0.01548106    0.08780000
opls_145-9    C    0.51495988    0.47233991    0.01476048    0.01160000
opls_145-10    C    0.54225014    0.51487008    0.01469995    -0.23680000
opls_145-11    C    0.52738986    0.54227997    0.01555889    -0.23770000
opls_145-12    C    0.68591003    0.30984988    0.98885975    -0.15380000
opls_145-13    C    0.71007015    0.35288012    0.98896927    0.03000000
opls_145-14    C    0.61760004    0.24403002    0.98973021    0.03460000
opls_145-15    C    0.57787005    0.22361001    0.83676140    -0.23690000
opls_145-16    C    0.55427003    0.18080998    0.84252897    -0.24010000
opls_145-17    C    0.56998992    0.15723987    0.98856863    0.17230000
opls_145-18    C    0.60951005    0.17714989    0.14188044    -0.23890000
opls_145-19    C    0.63283986    0.21998989    0.14526143    -0.23690000
opls_142-20    C    0.55708008    0.08710989    0.01548106    0.08780000
opls_145-21    C    0.52765999    0.04262002    0.01476048    0.01160000
opls_145-22    C    0.48513012    0.02738015    0.01469995    -0.23690000
opls_145-23    C    0.45772007    0.98510993    0.01555889    -0.23780000
opls_145-24    C    0.69014990    0.37605983    0.98885975    -0.15380000
opls_145-25    C    0.64712003    0.35718993    0.98896927    0.03000000
opls_145-26    C    0.75596993    0.37356999    0.98973021    0.03460000
opls_145-27    C    0.77639018    0.35426013    0.83676140    -0.23690000
opls_145-28    C    0.81918988    0.37346000    0.84252897    -0.24010000
opls_145-29    C    0.84275996    0.41274991    0.98856863    0.17230000
opls_145-30    C    0.82285009    0.43236001    0.14188044    -0.23890000
opls_145-31    C    0.78000994    0.41284999    0.14526143    -0.23690000
opls_142-32    C    0.91288993    0.46996999    0.01548106    0.08780000
opls_145-33    C    0.95738013    0.48504007    0.01476048    0.01160000
opls_145-34    C    0.97262018    0.45775008    0.01469995    -0.23690000
opls_145-35    C    0.01489006    0.47261010    0.01555889    -0.23780000
opls_145-36    C    0.37606008    0.68591002    0.98885975    -0.15380000
opls_145-37    C    0.35718990    0.71007005    0.98896927    0.03000000
opls_145-38    C    0.37356997    0.61760001    0.98973021    0.03460000
opls_145-39    C    0.35425979    0.57786982    0.83676140    -0.23690000
opls_145-40    C    0.37345991    0.55426998    0.84252897    -0.24010000
opls_145-41    C    0.41275004    0.56999010    0.98856863    0.17230000
opls_145-42    C    0.43235986    0.60950990    0.14188044    -0.23890000
opls_145-43    C    0.41284980    0.63283988    0.14526143    -0.23690000
opls_142-44    C    0.46997001    0.55707987    0.01548106    0.08780000
opls_145-45    C    0.48504012    0.52766009    0.01476048    0.01160000
opls_145-46    C    0.45774986    0.48512992    0.01469995    -0.23690000
opls_145-47    C    0.47261014    0.45772003    0.01555889    -0.23780000
opls_145-48    C    0.31408997    0.69015012    0.98885975    -0.15380000
opls_145-49    C    0.28992985    0.64711988    0.98896927    0.03000000
opls_145-50    C    0.38239996    0.75596998    0.98973021    0.03460000
opls_145-51    C    0.42212995    0.77638999    0.83676140    -0.23690000
opls_145-52    C    0.44572997    0.81919002    0.84252897    -0.24000000
opls_145-53    C    0.43000992    0.84275981    0.98856863    0.17230000
opls_145-54    C    0.39048995    0.82285011    0.14188044    -0.23890000
opls_145-55    C    0.36716014    0.78001011    0.14526143    -0.23690000
opls_142-56    C    0.44291992    0.91289011    0.01548106    0.08780000
opls_145-57    C    0.47234001    0.95737998    0.01476048    0.01160000
opls_145-58    C    0.51486988    0.97261985    0.01469995    -0.23680000
opls_145-59    C    0.54227993    0.01489007    0.01555889    -0.23770000
opls_145-60    C    0.30984994    0.62393986    0.98885975    -0.15380000
opls_145-61    C    0.35287997    0.64281007    0.98896927    0.03000000
opls_145-62    C    0.24403007    0.62643001    0.98973021    0.03460000
opls_145-63    C    0.22360982    0.64573987    0.83676140    -0.23690000
opls_145-64    C    0.18081012    0.62654000    0.84252897    -0.24010000
opls_145-65    C    0.15724004    0.58725009    0.98856863    0.17230000
opls_145-66    C    0.17714991    0.56763999    0.14188044    -0.23890000
opls_145-67    C    0.21999006    0.58715001    0.14526143    -0.23690000
opls_142-68    C    0.08711007    0.53003001    0.01548106    0.08780000
opls_145-69    C    0.04261987    0.51495993    0.01476048    0.01160000
opls_145-70    C    0.02737982    0.54224992    0.01469995    -0.23690000
opls_145-71    C    0.98510994    0.52738990    0.01555889    -0.23770000
opls_750-72    N    0.56898016    0.45557008    0.98651064    -0.21470000
opls_750-73    N    0.54443006    0.11340995    0.98651064    -0.21450000
opls_750-74    N    0.88659005    0.43101997    0.98651064    -0.21470000
opls_750-75    N    0.43101984    0.54442992    0.98651064    -0.21460000
opls_750-76    N    0.45556994    0.88659005    0.98651064    -0.21470000
opls_750-77    N    0.11340995    0.56898003    0.98651064    -0.21470000
opls_146-78    H    0.45102000    0.42506989    0.01608924    0.19470000
opls_146-79    H    0.59094991    0.29923988    0.98898945    0.19520000
opls_146-80    H    0.67513985    0.43480987    0.70168905    0.19470000
opls_146-81    H    0.64173003    0.47607002    0.72245057    0.19510000
opls_146-82    H    0.53809984    0.37815989    0.27326051    0.19490000
opls_146-83    H    0.57182000    0.33781004    0.28278953    0.19490000
opls_144-84    H    0.50780006    0.41052003    0.03005131    0.09530000
opls_146-85    H    0.57504996    0.52679007    0.01510059    0.19480000
opls_146-86    H    0.57492992    0.02594995    0.01608924    0.19470000
opls_146-87    H    0.70075993    0.29170995    0.98898945    0.19510000
opls_146-88    H    0.56518997    0.24032996    0.70168905    0.19470000
opls_146-89    H    0.52392985    0.16565996    0.72245057    0.19510000
opls_146-90    H    0.62183998    0.15994009    0.27326051    0.19490000
opls_146-91    H    0.66219001    0.23400994    0.28278953    0.19490000
opls_144-92    H    0.58948009    0.09727992    0.03005131    0.09530000
opls_146-93    H    0.47320996    0.04825995    0.01510059    0.19480000
opls_146-94    H    0.97404992    0.54897985    0.01608924    0.19470000
opls_146-95    H    0.70829000    0.40904985    0.98898945    0.19510000
opls_146-96    H    0.75967001    0.32485985    0.70168905    0.19470000
opls_146-97    H    0.83434013    0.35827002    0.72245057    0.19510000
opls_146-98    H    0.84005990    0.46190002    0.27326051    0.19490000
opls_146-99    H    0.76598999    0.42818002    0.28278953    0.19480000
opls_144-100    H    0.90272013    0.49220005    0.03005131    0.09530000
opls_146-101    H    0.95174009    0.42494998    0.01510059    0.19490000
opls_146-102    H    0.54898000    0.57493011    0.01608924    0.19470000
opls_146-103    H    0.40905009    0.70076012    0.98898945    0.19510000
opls_146-104    H    0.32486015    0.56519013    0.70168905    0.19470000
opls_146-105    H    0.35826997    0.52392998    0.72245057    0.19520000
opls_146-106    H    0.46190016    0.62184011    0.27326051    0.19490000
opls_146-107    H    0.42818000    0.66218996    0.28278953    0.19480000
opls_144-108    H    0.49219994    0.58947997    0.03005131    0.09530000
opls_146-109    H    0.42495004    0.47320993    0.01510059    0.19480000
opls_146-110    H    0.42507008    0.97405005    0.01608924    0.19470000
opls_146-111    H    0.29924007    0.70829005    0.98898945    0.19510000
opls_146-112    H    0.43481003    0.75967004    0.70168905    0.19470000
opls_146-113    H    0.47607015    0.83434004    0.72245057    0.19520000
opls_146-114    H    0.37816002    0.84005991    0.27326051    0.19490000
opls_146-115    H    0.33780999    0.76599006    0.28278953    0.19480000
opls_144-116    H    0.41051991    0.90272008    0.03005131    0.09530000
opls_146-117    H    0.52679004    0.95174005    0.01510059    0.19490000
opls_146-118    H    0.02594992    0.45101983    0.01608924    0.19470000
opls_146-119    H    0.29170984    0.59094983    0.98898945    0.19510000
opls_146-120    H    0.24032983    0.67513983    0.70168905    0.19470000
opls_146-121    H    0.16565987    0.64172998    0.72245057    0.19520000
opls_146-122    H    0.15994010    0.53809998    0.27326051    0.19490000
opls_146-123    H    0.23401001    0.57181998    0.28278953    0.19480000
opls_144-124    H    0.09727987    0.50779995    0.03005131    0.09530000
opls_146-125    H    0.04825991    0.57505002    0.01510059    0.19480000
