#======================================================================
# Crystal Data Generated By AuToFF
#----------------------------------------------------------------------

data_AuToFF_phase_1

_cell_length_a                         37.4334
_cell_length_b                         37.4334
_cell_length_c                         3.9433
_cell_angle_alpha                      90.00
_cell_angle_beta                       90.00
_cell_angle_gamma                      120.00
_symmetry_space_group_name_H-M_alt     'P 1'
_symmetry_space_group_IT_number        1

loop_
_space_group_symop_operation_xyz
   'x, y, z'

loop_
   _atom_site_label
   _atom_site_type_symbol
   _atom_site_fract_x
   _atom_site_fract_y
   _atom_site_fract_z
   _atom_site_charge
opls_145-0    C    0.31216012    0.12823012    0.72986078    -0.13540000
opls_145-1    C    0.35516001    0.14772992    0.78033880    -0.13540000
opls_700-2    C    0.37726995    0.18813984    0.91272031    0.00270000
opls_624-3    C    0.35454003    0.20754988    0.98899906    0.09890000
opls_624-4    C    0.31295013    0.18879009    0.93800877    0.07770000
opls_700-5    C    0.29013004    0.14863003    0.81035934    0.00020000
opls_700-6    C    0.24468991    0.12774984    0.77059062    0.06110000
opls_700-7    C    0.42247013    0.20878005    0.96287120    0.06360000
opls_145-8    C    0.22563009    0.14896009    0.63942890    -0.12040000
opls_145-9    C    0.18278001    0.12921012    0.60747090    -0.17170000
opls_145-10    C    0.15812990    0.08793002    0.70358076    0.18780000
opls_145-11    C    0.17705001    0.06665992    0.83818883    -0.17070000
opls_145-12    C    0.21992987    0.08638984    0.86954074    -0.12800000
opls_145-13    C    0.44040993    0.18734985    0.11050896    -0.12460000
opls_145-14    C    0.48314996    0.20641009    0.14942054    -0.17420000
opls_145-15    C    0.50872986    0.24715994    0.04351939    0.18790000
opls_145-16    C    0.49088995    0.26853985    0.89117998    -0.17080000
opls_145-17    C    0.44815007    0.24945000    0.85176122    -0.12030000
opls_627-18    C    0.33043003    0.24794005    0.16467933    0.27070000
opls_137-19    C    0.32895986    0.28454995    0.30520123    0.06660000
opls_907-20    C    0.34722998    0.35173982    0.13063931    -0.01420000
opls_136-21    C    0.30150011    0.32925004    0.21926052    -0.16560000
opls_136-22    C    0.28897011    0.28421002    0.22561053    -0.19750000
opls_142-23    C    0.08765991    0.03021999    0.67322040    0.07000000
opls_142-24    C    0.57946016    0.30405006    0.07894910    0.06880000
opls_700-25    C    0.04291992    0.01506989    0.66087034    0.06160000
opls_700-26    C    0.62406992    0.31863998    0.09473030    0.05200000
opls_145-27    C    0.02752985    0.04246987    0.66013998    -0.17780000
opls_145-28    C    0.65220993    0.36114994    0.09565085    -0.10760000
opls_145-29    C    0.87176987    0.18392987    0.72986078    -0.13530000
opls_145-30    C    0.85226997    0.20742988    0.78033880    -0.13540000
opls_700-31    C    0.81185999    0.18913002    0.91272031    0.00270000
opls_624-32    C    0.79244995    0.14698991    0.98899906    0.09890000
opls_624-33    C    0.81120987    0.12415989    0.93800877    0.07770000
opls_700-34    C    0.85137003    0.14150010    0.81035934    0.00020000
opls_700-35    C    0.87224988    0.11693989    0.77059062    0.06100000
opls_700-36    C    0.79121988    0.21368993    0.96287120    0.06360000
opls_145-37    C    0.85103997    0.07667001    0.63942890    -0.12020000
opls_145-38    C    0.87079013    0.05357008    0.60747090    -0.17170000
opls_145-39    C    0.91206998    0.07019990    0.70358076    0.18780000
opls_145-40    C    0.93333986    0.11038988    0.83818883    -0.17070000
opls_145-41    C    0.91361003    0.13354009    0.86954074    -0.12800000
opls_145-42    C    0.81264988    0.25306000    0.11050896    -0.12460000
opls_145-43    C    0.79358986    0.27673985    0.14942054    -0.17420000
opls_145-44    C    0.75283991    0.26157002    0.04351939    0.18780000
opls_145-45    C    0.73146002    0.22234986    0.89117998    -0.17080000
opls_145-46    C    0.75054996    0.19869993    0.85176122    -0.12040000
opls_627-47    C    0.75205988    0.08248988    0.16467933    0.27070000
opls_137-48    C    0.71545013    0.04441013    0.30520123    0.06660000
opls_907-49    C    0.64825999    0.99548989    0.13063931    -0.01420000
opls_136-50    C    0.67074992    0.97224992    0.21926052    -0.16560000
opls_136-51    C    0.71578993    0.00475997    0.22561053    -0.19750000
opls_142-52    C    0.96978018    0.05744012    0.67322040    0.06990000
opls_142-53    C    0.69595007    0.27541005    0.07894910    0.06880000
opls_700-54    C    0.98493005    0.02785003    0.66087034    0.06160000
opls_700-55    C    0.68135993    0.30542984    0.09473030    0.05200000
opls_145-56    C    0.95752996    0.98505997    0.66013998    -0.17780000
opls_145-57    C    0.63884980    0.29105986    0.09565085    -0.10760000
opls_145-58    C    0.81607001    0.68784001    0.72986078    -0.13540000
opls_145-59    C    0.79256986    0.64483989    0.78033880    -0.13540000
opls_700-60    C    0.81086990    0.62272983    0.91272031    0.00270000
opls_624-61    C    0.85300986    0.64545991    0.98899906    0.09890000
opls_624-62    C    0.87584000    0.68705002    0.93800877    0.07770000
opls_700-63    C    0.85849993    0.70986986    0.81035934    0.00020000
opls_700-64    C    0.88306005    0.75530997    0.77059062    0.06100000
opls_700-65    C    0.78630998    0.57753002    0.96287120    0.06360000
opls_145-66    C    0.92332994    0.77436989    0.63942890    -0.12020000
opls_145-67    C    0.94642986    0.81721979    0.60747090    -0.17170000
opls_145-68    C    0.92979996    0.84186977    0.70358076    0.18780000
opls_145-69    C    0.88960998    0.82294989    0.83818883    -0.17070000
opls_145-70    C    0.86645995    0.78006976    0.86954074    -0.12800000
opls_145-71    C    0.74694003    0.55958984    0.11050896    -0.12460000
opls_145-72    C    0.72325991    0.51685006    0.14942054    -0.17420000
opls_145-73    C    0.73842996    0.49127005    0.04351939    0.18780000
opls_145-74    C    0.77764987    0.50910998    0.89117998    -0.17080000
opls_145-75    C    0.80129997    0.55185007    0.85176122    -0.12040000
opls_627-76    C    0.91750993    0.66956976    0.16467933    0.27070000
opls_137-77    C    0.95559000    0.67103992    0.30520123    0.06660000
opls_907-78    C    0.00450987    0.65276998    0.13063931    -0.01420000
opls_136-79    C    0.02774997    0.69850004    0.21926052    -0.16550000
opls_136-80    C    0.99523996    0.71103001    0.22561053    -0.19750000
opls_142-81    C    0.94255991    0.91233989    0.67322040    0.06990000
opls_142-82    C    0.72459005    0.42053989    0.07894910    0.06880000
opls_700-83    C    0.97214987    0.95707977    0.66087034    0.06160000
opls_700-84    C    0.69457000    0.37592988    0.09473030    0.05200000
opls_145-85    C    0.01494004    0.97246985    0.66013998    -0.17780000
opls_145-86    C    0.70893985    0.34778989    0.09565085    -0.10760000
opls_750-87    N    0.11413992    0.06950986    0.67637005    -0.35750000
opls_750-88    N    0.55256996    0.26487001    0.07721959    -0.35750000
opls_557-89    N    0.36787009    0.24646002    0.14163011    -0.40300000
opls_559-90    N    0.29805002    0.21499012    0.05140111    -0.40790000
opls_901-91    N    0.36265008    0.32284995    0.16574950    -0.39610000
opls_750-92    N    0.93049009    0.04463007    0.67637005    -0.35760000
opls_750-93    N    0.73512999    0.28770003    0.07721959    -0.35760000
opls_557-94    N    0.75353996    0.12140990    0.14163011    -0.40300000
opls_559-95    N    0.78500985    0.08305993    0.05140111    -0.40770000
opls_901-96    N    0.67714998    0.03980008    0.16574950    -0.39600000
opls_750-97    N    0.95536984    0.88585977    0.67637005    -0.35760000
opls_750-98    N    0.71230004    0.44742997    0.07721959    -0.35750000
opls_557-99    N    0.87858980    0.63212977    0.14163011    -0.40310000
opls_559-100    N    0.91693986    0.70194995    0.05140111    -0.40780000
opls_901-101    N    0.96019994    0.63734998    0.16574950    -0.39600000
opls_146-102    H    0.29625991    0.09735988    0.62529100    0.11560000
opls_146-103    H    0.37111985    0.13134997    0.71248954    0.11820000
opls_146-104    H    0.24377993    0.18076005    0.55964040    0.11860000
opls_146-105    H    0.16865993    0.14609011    0.50623082    0.11590000
opls_146-106    H    0.15902996    0.03530015    0.92816930    0.11480000
opls_146-107    H    0.23369988    0.06959993    0.97951969    0.11420000
opls_146-108    H    0.42131995    0.15590988    0.19729922    0.11560000
opls_146-109    H    0.49645002    0.18941011    0.26364973    0.11380000
opls_146-110    H    0.50971014    0.29939004    0.79254939    0.11900000
opls_146-111    H    0.43526002    0.26618007    0.72676946    0.11840000
opls_562-112    H    0.39702993    0.26793988    0.23202901    0.26260000
opls_140-113    H    0.33248986    0.28457987    0.58316892    0.08710000
opls_910-114    H    0.38738995    0.33503998    0.33665965    0.26260000
opls_140-115    H    0.35176011    0.36270000    0.86552126    0.08610000
opls_140-116    H    0.36464995    0.37926010    0.29533893    0.06680000
opls_140-117    H    0.28298995    0.33547986    0.03390054    0.11270000
opls_140-118    H    0.29688989    0.33900997    0.47240890    0.09120000
opls_140-119    H    0.27696995    0.27072010    0.97280958    0.10960000
opls_140-120    H    0.26449991    0.26669984    0.41552000    0.10930000
opls_144-121    H    0.09791988    0.00784989    0.67822889    0.08690000
opls_144-122    H    0.56960989    0.32672986    0.06883067    0.10350000
opls_146-123    H    0.04864987    0.07545989    0.66350011    0.11290000
opls_146-124    H    0.64074990    0.38259988    0.09132960    0.11080000
opls_146-125    H    0.90263984    0.19889982    0.62529100    0.11560000
opls_146-126    H    0.86864999    0.23976997    0.71248954    0.11840000
opls_146-127    H    0.81923994    0.06302000    0.55964040    0.11860000
opls_146-128    H    0.85391003    0.02256998    0.50623082    0.11590000
opls_146-129    H    0.96469984    0.12372988    0.92816930    0.11490000
opls_146-130    H    0.93039987    0.16410001    0.97951969    0.11430000
opls_146-131    H    0.84408993    0.26540982    0.19729922    0.11560000
opls_146-132    H    0.81058991    0.30704004    0.26364973    0.11420000
opls_146-133    H    0.70061001    0.21031992    0.79254939    0.11900000
opls_146-134    H    0.73382001    0.16907991    0.72676946    0.11840000
opls_562-135    H    0.73206017    0.12909013    0.23202901    0.26250000
opls_140-136    H    0.71542011    0.04791001    0.58316892    0.08720000
opls_910-137    H    0.66495993    0.05235009    0.33665965    0.26260000
opls_140-138    H    0.63730003    0.98905988    0.86552126    0.08610000
opls_140-139    H    0.62073987    0.98538972    0.29533893    0.06680000
opls_140-140    H    0.66451986    0.94750986    0.03390054    0.11270000
opls_140-141    H    0.66098996    0.95787994    0.47240890    0.09120000
opls_140-142    H    0.72927992    0.00624987    0.97280958    0.10960000
opls_140-143    H    0.73330003    0.99780001    0.41552000    0.10930000
opls_144-144    H    0.99214981    0.09006986    0.67822889    0.08700000
opls_144-145    H    0.67326989    0.24287994    0.06883067    0.10350000
opls_146-146    H    0.92453990    0.97318982    0.66350011    0.11290000
opls_146-147    H    0.61740015    0.25815003    0.09132960    0.11080000
opls_146-148    H    0.80110009    0.70373999    0.62529100    0.11560000
opls_146-149    H    0.76023016    0.62888006    0.71248954    0.11830000
opls_146-150    H    0.93697986    0.75621995    0.55964040    0.11860000
opls_146-151    H    0.97743004    0.83133991    0.50623082    0.11590000
opls_146-152    H    0.87626993    0.84096997    0.92816930    0.11480000
opls_146-153    H    0.83589983    0.76629975    0.97951969    0.11420000
opls_146-154    H    0.73458996    0.57867999    0.19729922    0.11560000
opls_146-155    H    0.69295980    0.50354985    0.26364973    0.11380000
opls_146-156    H    0.78968012    0.49029005    0.79254939    0.11910000
opls_146-157    H    0.83091997    0.56474002    0.72676946    0.11840000
opls_562-158    H    0.87090989    0.60296999    0.23202901    0.26260000
opls_140-159    H    0.95208987    0.66750981    0.58316892    0.08710000
opls_910-160    H    0.94764986    0.61260992    0.33665965    0.26260000
opls_140-161    H    0.01093997    0.64823982    0.86552126    0.08610000
opls_140-162    H    0.01461003    0.63534987    0.29533893    0.06690000
opls_140-163    H    0.05249004    0.71700997    0.03390054    0.11270000
opls_140-164    H    0.04212000    0.70310979    0.47240890    0.09120000
opls_140-165    H    0.99375013    0.72303003    0.97280958    0.10960000
opls_140-166    H    0.00219991    0.73549985    0.41552000    0.10940000
opls_144-167    H    0.90992989    0.90207994    0.67822889    0.08690000
opls_144-168    H    0.75712007    0.43038989    0.06883067    0.10350000
opls_146-169    H    0.02681007    0.95134998    0.66350011    0.11290000
opls_146-170    H    0.74184996    0.35925009    0.09132960    0.11080000
