#======================================================================
# Crystal Data Generated By AuToFF
#----------------------------------------------------------------------

data_AuToFF_phase_1

_cell_length_a                         29.6248
_cell_length_b                         29.6248
_cell_length_c                         6.2607
_cell_angle_alpha                      90.00
_cell_angle_beta                       90.00
_cell_angle_gamma                      120.00
_symmetry_space_group_name_H-M_alt     'P 1'
_symmetry_space_group_IT_number        1

loop_
_space_group_symop_operation_xyz
   'x, y, z'

loop_
   _atom_site_label
   _atom_site_type_symbol
   _atom_site_fract_x
   _atom_site_fract_y
   _atom_site_fract_z
   _atom_site_charge
opls_700-0    C    0.27580017    0.64230002    0.84407974    -0.11410000
opls_280-1    C    0.30236997    0.61134993    0.84165029    0.24410000
opls_145-2    C    0.36019998    0.63795013    0.85374000    -0.11460000
opls_280-3    C    0.39136997    0.69531993    0.86774003    0.32920000
opls_145-4    C    0.36453991    0.72625988    0.87077963    -0.10890000
opls_280-5    C    0.30681006    0.69986003    0.85734023    0.17100000
opls_142-6    C    0.38660982    0.61107982    0.85307074    0.11080000
opls_142-7    C    0.22239989    0.61570996    0.83628029    0.09860000
opls_142-8    C    0.39126995    0.77927980    0.88849969    0.11270000
opls_916-9    C    0.39548999    0.53484997    0.85588992    0.20490000
opls_145-10    C    0.37617991    0.48569000    0.95178974    -0.17780000
opls_145-11    C    0.40651001    0.46258998    0.96509017    -0.13210000
opls_700-12    C    0.45847978    0.48744983    0.88489945    0.06470000
opls_145-13    C    0.47610006    0.53565993    0.77897999    -0.13450000
opls_145-14    C    0.44594984    0.55880983    0.76621943    -0.17480000
opls_700-15    C    0.49307988    0.46739981    0.92108071    0.06620000
opls_145-16    C    0.47498999    0.41356994    0.94883959    -0.13570000
opls_145-17    C    0.50884008    0.39508018    0.98346032    -0.17810000
opls_916-18    C    0.56317014    0.42941000    0.99555002    0.20050000
opls_145-19    C    0.58158979    0.48297989    0.97253023    -0.17590000
opls_145-20    C    0.54792005    0.50131997    0.93551041    -0.13480000
opls_142-21    C    0.59062014    0.36427003    0.01940997    0.11580000
opls_700-22    C    0.62813990    0.35007014    0.02125002    -0.10890000
opls_280-23    C    0.61065013    0.29403999    0.00866996    0.24410000
opls_145-24    C    0.64960989    0.27632004    0.00754069    -0.14970000
opls_280-25    C    0.70601007    0.31473002    0.02063986    0.33220000
opls_700-26    C    0.72364998    0.37117996    0.03357931    -0.15100000
opls_280-27    C    0.68484995    0.38877986    0.03490983    0.33580000
opls_142-28    C    0.77538003    0.40844011    0.04377945    0.11080000
opls_916-29    C    0.86866993    0.43714002    0.03913939    0.21120000
opls_142-30    C    0.63507979    0.22481986    0.99496063    0.10920000
opls_916-31    C    0.56968998    0.13265991    0.99290015    0.21320000
opls_145-32    C    0.90530983    0.42296001    0.97253023    -0.17530000
opls_145-33    C    0.95781004    0.45851995    0.97226987    -0.13280000
opls_700-34    C    0.97754006    0.51087998    0.04127973    -0.00130000
opls_700-35    C    0.94006995    0.52440011    0.11162969    -0.05880000
opls_145-36    C    0.88735001    0.48844999    0.10675004    -0.18490000
opls_145-37    C    0.52165991    0.09504000    0.90494034    -0.17380000
opls_145-38    C    0.50431981    0.04292981    0.92885939    -0.14020000
opls_700-39    C    0.53308007    0.02476981    0.04955995    -0.00090000
opls_700-40    C    0.58125002    0.06346004    0.13863945    -0.05670000
opls_145-41    C    0.59902975    0.11556983    0.10740013    -0.20830000
opls_700-42    C    0.03151992    0.54614994    0.02235054    -0.00420000
opls_700-43    C    0.51381977    0.97078988    0.06443049    0.01510000
opls_700-44    C    0.46157994    0.93501009    0.12581021    -0.05740000
opls_145-45    C    0.43899011    0.88309012    0.07294073    -0.19600000
opls_916-46    C    0.46707005    0.86292005    0.96923986    0.21720000
opls_145-47    C    0.52042003    0.89690998    0.92914051    -0.17440000
opls_145-48    C    0.54334003    0.94910007    0.97663999    -0.13760000
opls_700-49    C    0.07012012    0.53562991    0.10463047    -0.05880000
opls_145-50    C    0.12124007    0.56441986    0.03740955    -0.19600000
opls_916-51    C    0.13812995    0.60703006    0.89956075    0.21550000
opls_145-52    C    0.10126991    0.62060982    0.83096938    -0.17460000
opls_145-53    C    0.04955982    0.59103993    0.88910984    -0.14210000
opls_470-54    C    0.95626993    0.57746992    0.19022953    0.59890000
opls_470-55    C    0.05675008    0.49210998    0.25551935    0.59890000
opls_470-56    C    0.61324998    0.04845994    0.27273947    0.59800000
opls_470-57    C    0.42843997    0.95273004    0.23322951    0.59870000
opls_700-58    C    0.94062975    0.97365979    0.17599949    -0.11790000
opls_280-59    C    0.96731985    0.94282001    0.17418020    0.24410000
opls_145-60    C    0.02516009    0.96956014    0.18620921    -0.11440000
opls_280-61    C    0.05621984    0.02695995    0.19956075    0.32920000
opls_145-62    C    0.02924994    0.05774984    0.20202054    -0.13980000
opls_280-63    C    0.97151982    0.03121980    0.18872011    0.30920000
opls_142-64    C    0.05170017    0.94282001    0.18607983    0.11080000
opls_142-65    C    0.88724995    0.94699996    0.16821921    0.11270000
opls_142-66    C    0.05580987    0.11079002    0.21888926    0.11270000
opls_916-67    C    0.06078010    0.86670008    0.19014966    0.20490000
opls_145-68    C    0.04161004    0.81763989    0.28680020    -0.17460000
opls_145-69    C    0.07200981    0.79462991    0.30023959    -0.13210000
opls_700-70    C    0.12392002    0.81948002    0.21940997    0.06740000
opls_145-71    C    0.14142000    0.86760007    0.11292028    -0.13480000
opls_145-72    C    0.11117987    0.89065994    0.09999042    -0.17480000
opls_700-73    C    0.15857005    0.79949002    0.25527018    0.06620000
opls_145-74    C    0.14052992    0.74566989    0.28327982    -0.13570000
opls_145-75    C    0.17441981    0.72721990    0.31779034    -0.17810000
opls_916-76    C    0.22875021    0.76158012    0.32945996    0.20050000
opls_145-77    C    0.24714001    0.81513013    0.30599933    -0.17430000
opls_145-78    C    0.21342995    0.83343006    0.26911048    -0.13470000
opls_142-79    C    0.25617996    0.69644015    0.35362979    0.11580000
opls_700-80    C    0.29366006    0.68217984    0.35605923    -0.10890000
opls_280-81    C    0.27614011    0.62615008    0.34349034    0.24410000
opls_145-82    C    0.31503002    0.60835997    0.34281949    -0.11280000
opls_280-83    C    0.37141976    0.64669979    0.35680994    0.33220000
opls_700-84    C    0.38911017    0.70315012    0.36985002    -0.11450000
opls_280-85    C    0.35037000    0.72081979    0.37037073    0.31710000
opls_142-86    C    0.44082993    0.74037012    0.38083920    0.10550000
opls_916-87    C    0.53413013    0.76904002    0.37847046    0.21120000
opls_142-88    C    0.30042990    0.55685004    0.32979060    0.10910000
opls_916-89    C    0.23491985    0.46478987    0.32350057    0.21060000
opls_145-90    C    0.57088005    0.75460003    0.31649017    -0.17530000
opls_145-91    C    0.62337993    0.79017011    0.31676011    -0.13210000
opls_700-92    C    0.64297999    0.84285014    0.38086955    -0.00110000
opls_700-93    C    0.60539986    0.85660998    0.44691967    -0.05660000
opls_145-94    C    0.55269987    0.82059984    0.44207996    -0.18760000
opls_145-95    C    0.18748996    0.42748997    0.23014040    -0.17380000
opls_145-96    C    0.16999008    0.37529988    0.25205009    -0.13290000
opls_700-97    C    0.19784995    0.35673997    0.37641957    -0.00100000
opls_700-98    C    0.24546983    0.39510981    0.47069018    -0.05670000
opls_145-99    C    0.26351014    0.44732016    0.44115993    -0.20830000
opls_700-100    C    0.69689009    0.87818987    0.35983995    -0.00420000
opls_700-101    C    0.17817010    0.30270001    0.39121983    0.01550000
opls_700-102    C    0.12556000    0.26715994    0.44863034    -0.05740000
opls_145-103    C    0.10302994    0.21516981    0.39720958    -0.21340000
opls_916-104    C    0.13142989    0.19468986    0.29861038    0.21720000
opls_145-105    C    0.18501002    0.22847984    0.26229016    -0.17350000
opls_145-106    C    0.20791986    0.28072995    0.30859968    -0.13760000
opls_700-107    C    0.73579996    0.86839989    0.44427939    -0.05870000
opls_145-108    C    0.78676006    0.89690998    0.37487022    -0.18810000
opls_916-109    C    0.80316990    0.93861005    0.23233983    0.21530000
opls_145-110    C    0.76603982    0.95155994    0.16129985    -0.17440000
opls_145-111    C    0.71447982    0.92220988    0.22178990    -0.14210000
opls_470-112    C    0.62136997    0.91002006    0.52014950    0.59890000
opls_470-113    C    0.72291008    0.82585985    0.59989937    0.59890000
opls_470-114    C    0.27644000    0.37962989    0.60878975    0.59800000
opls_470-115    C    0.09209006    0.28525018    0.55044963    0.59870000
opls_700-116    C    0.60876014    0.30925018    0.50904052    -0.12300000
opls_280-117    C    0.63542998    0.27839014    0.50629962    0.25350000
opls_145-118    C    0.69326987    0.30510999    0.51767055    -0.11440000
opls_280-119    C    0.72435007    0.36250006    0.53123932    0.32920000
opls_145-120    C    0.69741003    0.39333009    0.53475011    -0.14970000
opls_280-121    C    0.63966992    0.36680981    0.52208060    0.29980000
opls_142-122    C    0.71980001    0.27834999    0.51679045    0.11080000
opls_142-123    C    0.55537001    0.28257983    0.50176019    0.09860000
opls_142-124    C    0.72404016    0.44635001    0.55217947    0.10550000
opls_916-125    C    0.72887975    0.20223980    0.52144009    0.20590000
opls_145-126    C    0.70953000    0.15313011    0.61782069    -0.17460000
opls_145-127    C    0.73990985    0.13011000    0.63252033    -0.13280000
opls_700-128    C    0.79197985    0.15504000    0.55340936    0.06470000
opls_145-129    C    0.80966999    0.20322983    0.44714968    -0.13480000
opls_145-130    C    0.77944002    0.22626007    0.43282061    -0.17230000
opls_700-131    C    0.82655984    0.13500986    0.59033974    0.06620000
opls_145-132    C    0.80848989    0.08111996    0.61619947    -0.13520000
opls_145-133    C    0.84235011    0.06260994    0.65002955    -0.17470000
opls_916-134    C    0.89665992    0.09697016    0.66352005    0.20050000
opls_145-135    C    0.91504005    0.15057981    0.64280991    -0.17430000
opls_145-136    C    0.88137012    0.16894990    0.60648011    -0.13480000
opls_142-137    C    0.92409019    0.03180018    0.68638970    0.11860000
opls_700-138    C    0.96156996    0.01753987    0.68879039    -0.10940000
opls_280-139    C    0.94400004    0.96149998    0.67621033    0.25350000
opls_145-140    C    0.98288001    0.94368999    0.67591963    -0.13980000
opls_280-141    C    0.03929979    0.98202982    0.68956027    0.31140000
opls_700-142    C    0.05702006    0.03851016    0.70236076    -0.15100000
opls_280-143    C    0.01829002    0.05620009    0.70309071    0.33580000
opls_142-144    C    0.10877004    0.07570014    0.71301931    0.11080000
opls_916-145    C    0.20202004    0.10418996    0.70970019    0.21120000
opls_142-146    C    0.96827009    0.89216993    0.66360950    0.11790000
opls_916-147    C    0.90282980    0.80002986    0.65954925    0.21060000
opls_145-148    C    0.23862991    0.09000995    0.64270928    -0.17530000
opls_145-149    C    0.29114992    0.12550013    0.64326034    -0.13280000
opls_700-150    C    0.31091000    0.17779000    0.71333078    -0.00110000
opls_700-151    C    0.27347990    0.19125984    0.78464070    -0.05880000
opls_145-152    C    0.22073024    0.15540016    0.77882026    -0.19070000
opls_145-153    C    0.85475996    0.76260990    0.57111984    -0.17560000
opls_145-154    C    0.83736001    0.71044008    0.59324037    -0.14030000
opls_700-155    C    0.86608006    0.69202010    0.71258965    -0.00100000
opls_700-156    C    0.91431997    0.73050999    0.80191033    -0.05660000
opls_145-157    C    0.93215995    0.78267006    0.77245036    -0.20760000
opls_700-158    C    0.36484022    0.21313012    0.69347996    -0.00420000
opls_700-159    C    0.84665994    0.63800002    0.72654016    0.01500000
opls_700-160    C    0.79438985    0.60227987    0.78772981    -0.05740000
opls_145-161    C    0.77176003    0.55034002    0.73509033    -0.19600000
opls_916-162    C    0.79981994    0.53010018    0.63182072    0.20960000
opls_145-163    C    0.85319002    0.56404996    0.59179006    -0.17440000
opls_145-164    C    0.87613987    0.61624980    0.63894932    -0.13300000
opls_700-165    C    0.40361994    0.20273014    0.77468973    -0.05880000
opls_145-166    C    0.45461011    0.23147994    0.70590030    -0.21340000
opls_916-167    C    0.47119999    0.27391006    0.56724967    0.21550000
opls_145-168    C    0.43419015    0.28739004    0.49973006    -0.17460000
opls_145-169    C    0.38260001    0.25788992    0.55968981    -0.14210000
opls_470-170    C    0.28975001    0.24422012    0.86490967    0.59890000
opls_470-171    C    0.39053016    0.15934000    0.92592042    0.59900000
opls_470-172    C    0.94630002    0.71521015    0.93453927    0.59810000
opls_470-173    C    0.76130015    0.62008011    0.89502931    0.59870000
opls_281-174    O    0.28546992    0.72581008    0.85946939    -0.36890000
opls_281-175    O    0.27617016    0.56426005    0.82891051    -0.36370000
opls_281-176    O    0.43872991    0.71631984    0.87764946    -0.40590000
opls_281-177    O    0.56407986    0.26308991    0.00127941    -0.36960000
opls_281-178    O    0.70032994    0.43509994    0.04669925    -0.36320000
opls_281-179    O    0.73705015    0.29919009    0.01994026    -0.36980000
opls_268-180    O    0.99973010    0.59751994    0.31573945    -0.47690000
opls_269-181    O    0.93517019    0.60268017    0.15896944    -0.44190000
opls_268-182    O    0.01965975    0.48587982    0.40061974    -0.47690000
opls_269-183    O    0.07534010    0.46403995    0.26510933    -0.44500000
opls_269-184    O    0.65736984    0.05766993    0.24346958    -0.44600000
opls_268-185    O    0.58659987    0.02198993    0.45071957    -0.47080000
opls_269-186    O    0.38226995    0.93643979    0.21051001    -0.45000000
opls_268-187    O    0.45565002    0.99156995    0.37697063    -0.47680000
opls_281-188    O    0.95007003    0.05707007    0.19066079    -0.36890000
opls_281-189    O    0.94120004    0.89572000    0.16184931    -0.36370000
opls_281-190    O    0.10358986    0.04807991    0.20935039    -0.40570000
opls_281-191    O    0.22954010    0.59524989    0.33578993    -0.36970000
opls_281-192    O    0.36587984    0.76716988    0.38216014    -0.36370000
opls_281-193    O    0.40243996    0.63110997    0.35654000    -0.36970000
opls_268-194    O    0.66502995    0.93106986    0.64460044    -0.47680000
opls_269-195    O    0.59990977    0.93475986    0.48557030    -0.44190000
opls_268-196    O    0.68585980    0.82019993    0.74411967    -0.47690000
opls_269-197    O    0.74183004    0.79814997    0.61373009    -0.44500000
opls_269-198    O    0.32099007    0.38952004    0.58665964    -0.44840000
opls_268-199    O    0.24816011    0.35170018    0.78135033    -0.47070000
opls_269-200    O    0.04622995    0.26955004    0.52144009    -0.45820000
opls_268-201    O    0.11856006    0.32366990    0.69666970    -0.47690000
opls_281-202    O    0.61823987    0.39267995    0.52466018    -0.36890000
opls_281-203    O    0.60929985    0.23129986    0.49391921    -0.36370000
opls_281-204    O    0.77171993    0.38359001    0.54046033    -0.40590000
opls_281-205    O    0.89741976    0.93062980    0.66812018    -0.36970000
opls_281-206    O    0.03381018    0.10252017    0.71488971    -0.36410000
opls_281-207    O    0.07027022    0.96642011    0.68945006    -0.36990000
opls_268-208    O    0.33333990    0.26409007    0.98961937    -0.47690000
opls_269-209    O    0.26863992    0.26949001    0.83560944    -0.44190000
opls_268-210    O    0.35352020    0.15307008    0.07156069    -0.47690000
opls_269-211    O    0.40926020    0.13140015    0.93535068    -0.44500000
opls_269-212    O    0.99049991    0.72465985    0.90517993    -0.44840000
opls_268-213    O    0.91953007    0.68810013    0.11120003    -0.47080000
opls_269-214    O    0.71520003    0.60404984    0.87134027    -0.45000000
opls_268-215    O    0.78845987    0.65864991    0.03989011    -0.47090000
opls_238-216    N    0.36386986    0.55802989    0.85056943    -0.23620000
opls_238-217    N    0.19080990    0.63713004    0.83248998    -0.24250000
opls_238-218    N    0.44438005    0.81017999    0.90667018    -0.24630000
opls_238-219    N    0.60115977    0.41454983    0.02925072    -0.24340000
opls_238-220    N    0.81546000    0.39801987    0.03628987    -0.24880000
opls_238-221    N    0.58476011    0.18556016    0.96689987    -0.23920000
opls_238-222    N    0.02906991    0.88977008    0.18451930    -0.23620000
opls_238-223    N    0.85567008    0.96842004    0.16284920    -0.24260000
opls_238-224    N    0.10888998    0.14188003    0.23743990    -0.24630000
opls_238-225    N    0.26674997    0.74673008    0.36321977    -0.24350000
opls_238-226    N    0.48091009    0.72993000    0.37498043    -0.24880000
opls_238-227    N    0.25012985    0.51775990    0.29966937    -0.24350000
opls_238-228    N    0.69715978    0.22530980    0.51469005    -0.23620000
opls_238-229    N    0.52371996    0.30393988    0.49823981    -0.24260000
opls_238-230    N    0.77714985    0.47733985    0.56962001    -0.24320000
opls_238-231    N    0.93466020    0.08209011    0.69635983    -0.24350000
opls_238-232    N    0.14877987    0.06516998    0.70583960    -0.24880000
opls_238-233    N    0.91791981    0.85296987    0.63554075    -0.23920000
opls_144-234    H    0.42904013    0.63147012    0.85876979    0.10100000
opls_144-235    H    0.20054998    0.57344003    0.83068986    0.10240000
opls_144-236    H    0.37054997    0.80089983    0.88895970    0.10350000
opls_910-237    H    0.32660992    0.53410005    0.88957944    0.28410000
opls_910-238    H    0.20311998    0.67458001    0.80517993    0.28470000
opls_910-239    H    0.46989000    0.79807981    0.88082004    0.28410000
opls_146-240    H    0.33661994    0.46580017    0.02105995    0.11360000
opls_146-241    H    0.39050004    0.42532984    0.04972926    0.05990000
opls_146-242    H    0.51545011    0.55648015    0.70933921    0.08970000
opls_146-243    H    0.46203011    0.59620991    0.68167936    0.06750000
opls_146-244    H    0.43300989    0.38532996    0.93986934    0.09750000
opls_146-245    H    0.49200989    0.35289991    0.00303960    0.08160000
opls_146-246    H    0.62378985    0.51080982    0.98315045    0.08080000
opls_146-247    H    0.56463023    0.54352013    0.92051049    0.11060000
opls_910-248    H    0.63735995    0.44497995    0.03102049    0.28460000
opls_144-249    H    0.54940013    0.33557012    0.00863003    0.10350000
opls_144-250    H    0.78764993    0.44944989    0.05536921    0.09660000
opls_910-251    H    0.81032002    0.36294986    0.00249014    0.28460000
opls_144-252    H    0.66349996    0.21180995    0.00130976    0.09300000
opls_910-253    H    0.55550000    0.19131987    0.92480074    0.28410000
opls_146-254    H    0.89186009    0.38305991    0.91686073    0.05870000
opls_146-255    H    0.98498020    0.44627011    0.91308959    0.10510000
opls_146-256    H    0.85943982    0.49997993    0.16405993    0.07520000
opls_146-257    H    0.49790008    0.10731011    0.81292028    0.08370000
opls_146-258    H    0.46733011    0.01477013    0.85281039    0.09750000
opls_146-259    H    0.63605003    0.14438005    0.18161068    0.06030000
opls_146-260    H    0.39812014    0.85660998    0.11848036    0.09600000
opls_146-261    H    0.54397990    0.88199992    0.85392049    0.07410000
opls_146-262    H    0.58382987    0.97496982    0.92542048    0.11130000
opls_146-263    H    0.14997004    0.55445994    0.09896018    0.06030000
opls_146-264    H    0.11335994    0.65419010    0.72412031    0.10800000
opls_146-265    H    0.02121997    0.60053992    0.81960963    0.11130000
opls_270-266    H    0.01325997    0.57432989    0.33222962    0.34970000
opls_270-267    H    0.00771001    0.51028986    0.38163943    0.34980000
opls_270-268    H    0.55201010    0.01718011    0.45746961    0.34970000
opls_270-269    H    0.49185996    0.00143008    0.38538023    0.34970000
opls_144-270    H    0.09413006    0.96329996    0.19159040    0.09820000
opls_144-271    H    0.86537998    0.90471016    0.16385069    0.10250000
opls_144-272    H    0.03492998    0.13224012    0.21818966    0.10310000
opls_910-273    H    0.99182988    0.86581997    0.22378967    0.28410000
opls_910-274    H    0.86797986    0.00580999    0.13394029    0.28460000
opls_910-275    H    0.13449006    0.12977986    0.21416934    0.28410000
opls_146-276    H    0.00209005    0.79775981    0.35646014    0.11360000
opls_146-277    H    0.05610985    0.75742979    0.38534030    0.08730000
opls_146-278    H    0.18072009    0.88840002    0.04280991    0.08970000
opls_146-279    H    0.12714998    0.92798011    0.01491047    0.06750000
opls_146-280    H    0.09855001    0.71741004    0.27467056    0.09750000
opls_146-281    H    0.15760988    0.68505989    0.33763956    0.07150000
opls_146-282    H    0.28933988    0.84297994    0.31617072    0.08330000
opls_146-283    H    0.23009995    0.87562008    0.25380069    0.11050000
opls_910-284    H    0.30294996    0.77715981    0.36498954    0.28460000
opls_144-285    H    0.21496010    0.66776012    0.34247928    0.10310000
opls_144-286    H    0.45308010    0.78137016    0.39206958    0.09170000
opls_910-287    H    0.47579984    0.69478984    0.34304950    0.28460000
opls_144-288    H    0.32873974    0.54369981    0.33710927    0.09630000
opls_910-289    H    0.22114003    0.52370982    0.25499066    0.28410000
opls_146-290    H    0.55752982    0.71448984    0.26406951    0.10290000
opls_146-291    H    0.65063002    0.77771017    0.26080949    0.09830000
opls_146-292    H    0.52473994    0.83239014    0.49598927    0.05820000
opls_146-293    H    0.16436001    0.44008009    0.13551041    0.08380000
opls_146-294    H    0.13348007    0.34740018    0.17222994    0.09830000
opls_146-295    H    0.30000999    0.47591990    0.51940997    0.06960000
opls_146-296    H    0.06191007    0.18895004    0.44004025    0.09590000
opls_146-297    H    0.20881001    0.21333981    0.19117990    0.07550000
opls_146-298    H    0.24871985    0.30640989    0.26080949    0.11130000
opls_146-299    H    0.81579012    0.88757994    0.43823055    0.06030000
opls_146-300    H    0.77777003    0.98441992    0.05066047    0.07620000
opls_146-301    H    0.68588999    0.93109987    0.15039053    0.09540000
opls_270-302    H    0.67886010    0.90819007    0.66399923    0.34970000
opls_270-303    H    0.67361976    0.84427984    0.72163017    0.34970000
opls_270-304    H    0.21338017    0.34646004    0.78273995    0.34970000
opls_270-305    H    0.15456013    0.33304009    0.71002923    0.34970000
opls_144-306    H    0.76222991    0.29884007    0.52205025    0.09820000
opls_144-307    H    0.53356013    0.24030016    0.49639018    0.10260000
opls_144-308    H    0.70324005    0.46788001    0.55293977    0.10320000
opls_910-309    H    0.65991993    0.20134995    0.55380069    0.28410000
opls_910-310    H    0.53599007    0.34138011    0.47100963    0.28460000
opls_910-311    H    0.80267988    0.46527982    0.54371077    0.28460000
opls_146-312    H    0.66989022    0.13320013    0.68629067    0.11300000
opls_146-313    H    0.72386005    0.09284985    0.71726005    0.08730000
opls_146-314    H    0.84911017    0.22406018    0.37828997    0.06960000
opls_146-315    H    0.79555996    0.26360987    0.34790039    0.05850000
opls_146-316    H    0.76653005    0.05286985    0.60579009    0.09540000
opls_146-317    H    0.82553008    0.02040004    0.66771926    0.08730000
opls_146-318    H    0.95721006    0.17841988    0.65474947    0.09940000
opls_146-319    H    0.89802981    0.21116994    0.59291932    0.11050000
opls_910-320    H    0.97085985    0.11251984    0.69907039    0.28460000
opls_144-321    H    0.88286980    0.00312989    0.67510023    0.10310000
opls_144-322    H    0.12111995    0.11672006    0.72467935    0.10180000
opls_910-323    H    0.14358014    0.03009998    0.67152076    0.28460000
opls_144-324    H    0.99664001    0.87911013    0.67031003    0.09430000
opls_910-325    H    0.88872010    0.85880987    0.59324037    0.28420000
opls_146-326    H    0.22515009    0.05018002    0.58597920    0.05850000
opls_146-327    H    0.31830012    0.11330017    0.58339962    0.09830000
opls_146-328    H    0.19281989    0.16688994    0.83651988    0.07520000
opls_146-329    H    0.83100998    0.77507997    0.48024023    0.06700000
opls_146-330    H    0.80032985    0.68244995    0.51704921    0.10510000
opls_146-331    H    0.96921996    0.81130994    0.84687016    0.06960000
opls_146-332    H    0.73086998    0.52391016    0.78058045    0.09900000
opls_146-333    H    0.87673019    0.54907013    0.51691983    0.07410000
opls_146-334    H    0.91665997    0.64207005    0.58798058    0.11130000
opls_146-335    H    0.48349004    0.22165995    0.76674014    0.08190000
opls_146-336    H    0.44605001    0.32084014    0.39229958    0.09540000
opls_146-337    H    0.35412014    0.26729012    0.49097066    0.09540000
opls_270-338    H    0.34688007    0.24085987    0.00460971    0.34970000
opls_270-339    H    0.34144004    0.17737996    0.05269059    0.34970000
opls_270-340    H    0.88489006    0.68316012    0.11818966    0.34970000
opls_270-341    H    0.82460999    0.66828982    0.04897056    0.34970000
