#======================================================================
# Crystal Data Generated By AuToFF
#----------------------------------------------------------------------

data_AuToFF_phase_1

_cell_length_a                         21.3700
_cell_length_b                         21.3700
_cell_length_c                         20.3400
_cell_angle_alpha                      90.00
_cell_angle_beta                       90.00
_cell_angle_gamma                      120.00
_symmetry_space_group_name_H-M_alt     'P 1'
_symmetry_space_group_IT_number        1

loop_
_space_group_symop_operation_xyz
   'x, y, z'

loop_
   _atom_site_label
   _atom_site_type_symbol
   _atom_site_fract_x
   _atom_site_fract_y
   _atom_site_fract_z
   _atom_site_charge
opls_145-0    C    0.45168020    0.91917041    0.05282989    0.03620000
opls_145-1    C    0.49408027    0.91085030    0.09796018    -0.22350000
opls_145-2    C    0.38127007    0.88937027    0.06565978    -0.22300000
opls_145-3    C    0.46681012    0.87576998    0.15673992    -0.22990000
opls_145-4    C    0.35408025    0.85456012    0.12444002    -0.23020000
opls_145-5    C    0.39727034    0.84964035    0.17153982    0.18250000
opls_521-6    C    0.32168983    0.53371002    0.50485005    0.12020000
opls_142-7    C    0.17920992    0.50072027    0.26447001    0.09480000
opls_522-8    C    0.15143019    0.67161003    0.53973009    -0.23200000
opls_523-9    C    0.13489994    0.63914009    0.60023009    -0.22300000
opls_522-10    C    0.17356996    0.61128030    0.62635005    0.00930000
opls_521-11    C    0.22716007    0.61322983    0.58911996    0.09630000
opls_141-12    C    0.48307000    0.51773009    0.99600983    -0.00550000
opls_145-13    C    0.06583992    0.54229004    0.93088004    0.06250000
opls_145-14    C    0.09228973    0.50763983    0.89465978    -0.22320000
opls_145-15    C    0.06301007    0.59755033    0.90243019    -0.22190000
opls_145-16    C    0.11419002    0.52708008    0.83002999    -0.23060000
opls_145-17    C    0.08440025    0.61663018    0.83794002    -0.22990000
opls_145-18    C    0.10969022    0.58156013    0.80105015    0.18240000
opls_521-19    C    0.47920003    0.76060034    0.44796018    0.11870000
opls_142-20    C    0.42344030    0.83931018    0.69385988    0.09480000
opls_522-21    C    0.20826013    0.75380992    0.41341003    -0.23150000
opls_523-22    C    0.23765994    0.78698014    0.35476991    -0.22300000
opls_522-23    C    0.29611013    0.78799003    0.32879990    0.00930000
opls_521-24    C    0.32788005    0.75706005    0.36332989    0.09630000
opls_145-25    C    0.08083007    0.53250993    0.05282989    0.03620000
opls_145-26    C    0.08915002    0.58323031    0.09796018    -0.22350000
opls_145-27    C    0.11063010    0.49190034    0.06565978    -0.22290000
opls_145-28    C    0.12423005    0.59104034    0.15673992    -0.22990000
opls_145-29    C    0.14544002    0.49952018    0.12444002    -0.23020000
opls_145-30    C    0.15036025    0.54763019    0.17153982    0.18240000
opls_521-31    C    0.46629011    0.78798031    0.50485005    0.12020000
opls_142-32    C    0.49928017    0.67849015    0.26447001    0.09480000
opls_522-33    C    0.32839012    0.47982002    0.53973009    -0.23200000
opls_523-34    C    0.36085987    0.49575997    0.60023009    -0.22300000
opls_522-35    C    0.38872014    0.56229008    0.62635005    0.00930000
opls_521-36    C    0.38676992    0.61393011    0.58911996    0.09630000
opls_141-37    C    0.48226994    0.96534007    0.99600983    -0.00550000
opls_145-38    C    0.45770999    0.52355006    0.93088004    0.06260000
opls_145-39    C    0.49236025    0.58465032    0.89465978    -0.22320000
opls_145-40    C    0.40245018    0.46546002    0.90243019    -0.22190000
opls_145-41    C    0.47291996    0.58710993    0.83002999    -0.23060000
opls_145-42    C    0.38336977    0.46776996    0.83794002    -0.22990000
opls_145-43    C    0.41843980    0.52812996    0.80105015    0.18240000
opls_521-44    C    0.23940010    0.71859992    0.44796018    0.11870000
opls_142-45    C    0.16069016    0.58412997    0.69385988    0.09490000
opls_522-46    C    0.24618996    0.45445011    0.41341003    -0.23160000
opls_523-47    C    0.21302001    0.45068018    0.35476991    -0.22300000
opls_522-48    C    0.21201002    0.50812019    0.32879990    0.00930000
opls_521-49    C    0.24294010    0.57081984    0.36332989    0.09630000
opls_145-50    C    0.46749000    0.54832020    0.05282989    0.03620000
opls_145-51    C    0.41676998    0.50591993    0.09796018    -0.22350000
opls_145-52    C    0.50810011    0.61872993    0.06565978    -0.22300000
opls_145-53    C    0.40896011    0.53319022    0.15673992    -0.22990000
opls_145-54    C    0.50048001    0.64592024    0.12444002    -0.23020000
opls_145-55    C    0.45237015    0.60273000    0.17153982    0.18240000
opls_521-56    C    0.21202034    0.67831021    0.50485005    0.12020000
opls_142-57    C    0.32151018    0.82079012    0.26447001    0.09480000
opls_522-58    C    0.52018015    0.84856994    0.53973009    -0.23200000
opls_523-59    C    0.50424019    0.86509994    0.60023009    -0.22300000
opls_522-60    C    0.43771017    0.82643016    0.62635005    0.00930000
opls_521-61    C    0.38607000    0.77284006    0.58911996    0.09630000
opls_141-62    C    0.03466006    0.51692985    0.99600983    -0.00550000
opls_145-63    C    0.47645010    0.93415991    0.93088004    0.06250000
opls_145-64    C    0.41535028    0.90771040    0.89465978    -0.22320000
opls_145-65    C    0.53454002    0.93699019    0.90243019    -0.22190000
opls_145-66    C    0.41289002    0.88580999    0.83002999    -0.23060000
opls_145-67    C    0.53223024    0.91560040    0.83794002    -0.22990000
opls_145-68    C    0.47186998    0.89030992    0.80105015    0.18240000
opls_521-69    C    0.28140014    0.52080028    0.44796018    0.11870000
opls_142-70    C    0.41587000    0.57655985    0.69385988    0.09480000
opls_522-71    C    0.54554991    0.79173997    0.41341003    -0.23160000
opls_523-72    C    0.54932032    0.76234022    0.35476991    -0.22300000
opls_522-73    C    0.49188012    0.70389032    0.32879990    0.00930000
opls_521-74    C    0.42917985    0.67212011    0.36332989    0.09630000
opls_145-75    C    0.54832007    0.08083013    0.94717011    0.03620000
opls_145-76    C    0.50592000    0.08915024    0.90203982    -0.22350000
opls_145-77    C    0.61873020    0.11063027    0.93434022    -0.22300000
opls_145-78    C    0.53318988    0.12423002    0.84326008    -0.22990000
opls_145-79    C    0.64591975    0.14543988    0.87555998    -0.23020000
opls_145-80    C    0.60272993    0.15036019    0.82846018    0.18240000
opls_521-81    C    0.67831017    0.46628998    0.49514995    0.12020000
opls_142-82    C    0.82079035    0.49928027    0.73552999    0.09480000
opls_522-83    C    0.84856981    0.32838997    0.46026991    -0.23190000
opls_523-84    C    0.86510006    0.36085991    0.39976991    -0.22300000
opls_522-85    C    0.82643031    0.38872024    0.37364995    0.00930000
opls_521-86    C    0.77283993    0.38677017    0.41088004    0.09630000
opls_141-87    C    0.51693000    0.48226991    0.00399017    -0.00550000
opls_145-88    C    0.93416008    0.45770996    0.06911996    0.06250000
opls_145-89    C    0.90771027    0.49236017    0.10534022    -0.22320000
opls_145-90    C    0.93699020    0.40245021    0.09756981    -0.22190000
opls_145-91    C    0.88580998    0.47291992    0.16997001    -0.23060000
opls_145-92    C    0.91559975    0.38336982    0.16205998    -0.22990000
opls_145-93    C    0.89030978    0.41843987    0.19894985    0.18240000
opls_521-94    C    0.52080024    0.23940020    0.55203982    0.11870000
opls_142-95    C    0.57655970    0.16068982    0.30614012    0.09480000
opls_522-96    C    0.79173987    0.24619008    0.58658997    -0.23160000
opls_523-97    C    0.76234006    0.21301986    0.64523009    -0.22300000
opls_522-98    C    0.70388987    0.21200997    0.67120010    0.00930000
opls_521-99    C    0.67211995    0.24293995    0.63667011    0.09630000
opls_145-100    C    0.91916993    0.46749007    0.94717011    0.03620000
opls_145-101    C    0.91085025    0.41677023    0.90203982    -0.22350000
opls_145-102    C    0.88937017    0.50810020    0.93434022    -0.22300000
opls_145-103    C    0.87577022    0.40896020    0.84326008    -0.22990000
opls_145-104    C    0.85455998    0.50047982    0.87555998    -0.23020000
opls_145-105    C    0.84963975    0.45236981    0.82846018    0.18240000
opls_521-106    C    0.53371016    0.21202023    0.49514995    0.12020000
opls_142-107    C    0.50071983    0.32150985    0.73552999    0.09480000
opls_522-108    C    0.67160988    0.52017998    0.46026991    -0.23200000
opls_523-109    C    0.63914013    0.50424003    0.39976991    -0.22300000
opls_522-110    C    0.61127986    0.43770992    0.37364995    0.00930000
opls_521-111    C    0.61323008    0.38606989    0.41088004    0.09630000
opls_141-112    C    0.51773006    0.03465993    0.00399017    -0.00550000
opls_145-113    C    0.54229001    0.47644994    0.06911996    0.06250000
opls_145-114    C    0.50764002    0.41535022    0.10534022    -0.22320000
opls_145-115    C    0.59754982    0.53453998    0.09756981    -0.22190000
opls_145-116    C    0.52708004    0.41289007    0.16997001    -0.23060000
opls_145-117    C    0.61663023    0.53223004    0.16205998    -0.22990000
opls_145-118    C    0.58156020    0.47187004    0.19894985    0.18240000
opls_521-119    C    0.76059990    0.28140008    0.55203982    0.11870000
opls_142-120    C    0.83930984    0.41587003    0.30614012    0.09480000
opls_522-121    C    0.75381004    0.54554989    0.58658997    -0.23150000
opls_523-122    C    0.78697999    0.54931982    0.64523009    -0.22300000
opls_522-123    C    0.78798998    0.49187981    0.67120010    0.00930000
opls_521-124    C    0.75705990    0.42918016    0.63667011    0.09630000
opls_145-125    C    0.53251000    0.45167980    0.94717011    0.03620000
opls_145-126    C    0.58323002    0.49408007    0.90203982    -0.22350000
opls_145-127    C    0.49189989    0.38127007    0.93434022    -0.22300000
opls_145-128    C    0.59104016    0.46681032    0.84326008    -0.22990000
opls_145-129    C    0.49952026    0.35408030    0.87555998    -0.23020000
opls_145-130    C    0.54762985    0.39727000    0.82846018    0.18240000
opls_521-131    C    0.78797966    0.32168979    0.49514995    0.12030000
opls_142-132    C    0.67848982    0.17920988    0.73552999    0.09480000
opls_522-133    C    0.47981985    0.15143006    0.46026991    -0.23200000
opls_523-134    C    0.49575981    0.13490006    0.39976991    -0.22290000
opls_522-135    C    0.56228983    0.17356984    0.37364995    0.00930000
opls_521-136    C    0.61393000    0.22715994    0.41088004    0.09630000
opls_141-137    C    0.96533994    0.48307015    0.00399017    -0.00550000
opls_145-138    C    0.52354990    0.06584009    0.06911996    0.06250000
opls_145-139    C    0.58464999    0.09229014    0.10534022    -0.22320000
opls_145-140    C    0.46545998    0.06300981    0.09756981    -0.22180000
opls_145-141    C    0.58710998    0.11419001    0.16997001    -0.23060000
opls_145-142    C    0.46777003    0.08440014    0.16205998    -0.22990000
opls_145-143    C    0.52813002    0.10969008    0.19894985    0.18240000
opls_521-144    C    0.71860013    0.47920026    0.55203982    0.11880000
opls_142-145    C    0.58413000    0.42344015    0.30614012    0.09480000
opls_522-146    C    0.45445009    0.20826003    0.58658997    -0.23150000
opls_523-147    C    0.45067968    0.23765978    0.64523009    -0.22300000
opls_522-148    C    0.50812015    0.29611022    0.67120010    0.00930000
opls_521-149    C    0.57082015    0.32787989    0.63667011    0.09630000
opls_750-150    N    0.44757024    0.62776004    0.23493019    -0.29440000
opls_239-151    N    0.24512013    0.64657999    0.53044002    -0.37120000
opls_750-152    N    0.39907014    0.52550014    0.73373009    -0.32090000
opls_239-153    N    0.30115009    0.72478030    0.42111996    -0.36330000
opls_750-154    N    0.37224003    0.81980995    0.23493019    -0.29440000
opls_239-155    N    0.35342032    0.59854022    0.53044002    -0.37120000
opls_750-156    N    0.47450015    0.87357027    0.73373009    -0.32090000
opls_239-157    N    0.27522019    0.57637019    0.42111996    -0.36320000
opls_750-158    N    0.18019020    0.55243000    0.23493019    -0.29430000
opls_239-159    N    0.40146028    0.75488033    0.53044002    -0.37120000
opls_750-160    N    0.12642997    0.60093014    0.73373009    -0.32080000
opls_239-161    N    0.42362999    0.69885005    0.42111996    -0.36320000
opls_750-162    N    0.55242976    0.37223996    0.76506981    -0.29440000
opls_239-163    N    0.75487987    0.35342001    0.46955998    -0.37120000
opls_750-164    N    0.60092986    0.47449986    0.26626991    -0.32070000
opls_239-165    N    0.69885018    0.27522024    0.57888004    -0.36330000
opls_750-166    N    0.62775997    0.18019005    0.76506981    -0.29440000
opls_239-167    N    0.64657995    0.40146032    0.46955998    -0.37120000
opls_750-168    N    0.52550012    0.12643027    0.26626991    -0.32090000
opls_239-169    N    0.72477981    0.42362981    0.57888004    -0.36320000
opls_750-170    N    0.81980980    0.44757000    0.76506981    -0.29440000
opls_239-171    N    0.59853999    0.24512021    0.46955998    -0.37120000
opls_750-172    N    0.87357003    0.39906986    0.26626991    -0.32090000
opls_239-173    N    0.57637001    0.30114995    0.57888004    -0.36330000
opls_146-174    H    0.54866038    0.93375033    0.08862979    0.20360000
opls_146-175    H    0.34788998    0.89554038    0.03155015    0.20370000
opls_146-176    H    0.50044988    0.87150996    0.19203982    0.20370000
opls_146-177    H    0.29959035    0.83250031    0.13321976    0.20370000
opls_144-178    H    0.15319000    0.45013011    0.24232006    0.09940000
opls_525-179    H    0.12116015    0.69302036    0.52109980    0.20360000
opls_526-180    H    0.09224999    0.63671992    0.62723009    0.20370000
opls_524-181    H    0.25692031    0.59183032    0.60900983    0.09900000
opls_146-182    H    0.09347009    0.46392006    0.91541986    0.20370000
opls_146-183    H    0.04220000    0.62442994    0.92959980    0.20370000
opls_146-184    H    0.13208976    0.49790998    0.80262979    0.20370000
opls_146-185    H    0.08021985    0.65831990    0.81609980    0.20360000
opls_144-186    H    0.37077018    0.81639016    0.71043019    0.09900000
opls_525-187    H    0.16289016    0.75360999    0.43115978    0.20370000
opls_526-188    H    0.21371022    0.81145039    0.32855015    0.20370000
opls_524-189    H    0.37268994    0.75761011    0.34344985    0.09950000
opls_146-190    H    0.06625018    0.61491028    0.08862979    0.20360000
opls_146-191    H    0.10445989    0.45234982    0.03155015    0.20360000
opls_146-192    H    0.12849019    0.62894014    0.19203982    0.20360000
opls_146-193    H    0.16750019    0.46709022    0.13321976    0.20370000
opls_144-194    H    0.54987038    0.70306036    0.24232006    0.09940000
opls_525-195    H    0.30698016    0.42814001    0.52109980    0.20370000
opls_526-196    H    0.36328033    0.45553024    0.62723009    0.20370000
opls_524-197    H    0.40817034    0.66509032    0.60900983    0.09900000
opls_146-198    H    0.53608019    0.62955018    0.91541986    0.20370000
opls_146-199    H    0.37557000    0.41776986    0.92959980    0.20370000
opls_146-200    H    0.50209016    0.63418033    0.80262979    0.20370000
opls_146-201    H    0.34168009    0.42190019    0.81609980    0.20360000
opls_144-202    H    0.18361026    0.55438008    0.71043019    0.09900000
opls_525-203    H    0.24639016    0.40928008    0.43115978    0.20370000
opls_526-204    H    0.18855022    0.40226001    0.32855015    0.20370000
opls_524-205    H    0.24238976    0.61507995    0.34344985    0.09950000
opls_146-206    H    0.38509018    0.45133993    0.08862979    0.20360000
opls_146-207    H    0.54765040    0.65211034    0.03155015    0.20360000
opls_146-208    H    0.37105993    0.49954990    0.19203982    0.20360000
opls_146-209    H    0.53291020    0.70041001    0.13321976    0.20370000
opls_144-210    H    0.29693989    0.84681006    0.24232006    0.09940000
opls_525-211    H    0.57185996    0.87884018    0.52109980    0.20370000
opls_526-212    H    0.54447042    0.90775038    0.62723009    0.20380000
opls_524-213    H    0.33491010    0.74307990    0.60900983    0.09900000
opls_146-214    H    0.37044999    0.90653030    0.91541986    0.20380000
opls_146-215    H    0.58223000    0.95780020    0.92959980    0.20370000
opls_146-216    H    0.36582035    0.86791023    0.80262979    0.20380000
opls_146-217    H    0.57810006    0.91977991    0.81609980    0.20360000
opls_144-218    H    0.44562030    0.62923030    0.71043019    0.09910000
opls_525-219    H    0.59072015    0.83710993    0.43115978    0.20370000
opls_526-220    H    0.59774029    0.78629013    0.32855015    0.20370000
opls_524-221    H    0.38491983    0.62730994    0.34344985    0.09950000
opls_146-222    H    0.45133989    0.06625021    0.91137021    0.20360000
opls_146-223    H    0.65211029    0.10446016    0.96844985    0.20360000
opls_146-224    H    0.49955012    0.12849004    0.80796018    0.20360000
opls_146-225    H    0.70040992    0.16750023    0.86678024    0.20370000
opls_144-226    H    0.84681000    0.54986989    0.75767994    0.09940000
opls_525-227    H    0.87884012    0.30698018    0.47890020    0.20360000
opls_526-228    H    0.90775001    0.36328008    0.37276991    0.20380000
opls_524-229    H    0.74307996    0.40817022    0.39099017    0.09900000
opls_146-230    H    0.90652991    0.53607994    0.08458014    0.20370000
opls_146-231    H    0.95780000    0.37557006    0.07040020    0.20370000
opls_146-232    H    0.86791024    0.50209002    0.19737021    0.20370000
opls_146-233    H    0.91978015    0.34168010    0.18390020    0.20360000
opls_144-234    H    0.62922982    0.18360984    0.28956981    0.09900000
opls_525-235    H    0.83710984    0.24639001    0.56884022    0.20370000
opls_526-236    H    0.78629005    0.18855015    0.67144985    0.20370000
opls_524-237    H    0.62731006    0.24238989    0.65655015    0.09950000
opls_146-238    H    0.93375009    0.38509026    0.91137021    0.20370000
opls_146-239    H    0.89554011    0.54765018    0.96844985    0.20360000
opls_146-240    H    0.87150981    0.37105986    0.80796018    0.20360000
opls_146-241    H    0.83250008    0.53291032    0.86678024    0.20370000
opls_144-242    H    0.45012989    0.29694018    0.75767994    0.09940000
opls_525-243    H    0.69301984    0.57185999    0.47890020    0.20360000
opls_526-244    H    0.63671994    0.54447030    0.37276991    0.20380000
opls_524-245    H    0.59182993    0.33491022    0.39099017    0.09900000
opls_146-246    H    0.46391981    0.37044982    0.08458014    0.20370000
opls_146-247    H    0.62443000    0.58223014    0.07040020    0.20370000
opls_146-248    H    0.49791011    0.36582021    0.19737021    0.20370000
opls_146-249    H    0.65832018    0.57810035    0.18390020    0.20360000
opls_144-250    H    0.81638974    0.44561992    0.28956981    0.09900000
opls_525-251    H    0.75360984    0.59071992    0.56884022    0.20370000
opls_526-252    H    0.81144978    0.59773999    0.67144985    0.20370000
opls_524-253    H    0.75761024    0.38492005    0.65655015    0.09960000
opls_146-254    H    0.61490982    0.54866007    0.91137021    0.20360000
opls_146-255    H    0.45234987    0.34789020    0.96844985    0.20360000
opls_146-256    H    0.62894007    0.50045010    0.80796018    0.20360000
opls_146-257    H    0.46708980    0.29958999    0.86678024    0.20370000
opls_144-258    H    0.70306011    0.15318994    0.75767994    0.09940000
opls_525-259    H    0.42814004    0.12115982    0.47890020    0.20370000
opls_526-260    H    0.45552985    0.09225016    0.37276991    0.20370000
opls_524-261    H    0.66508990    0.25692010    0.39099017    0.09900000
opls_146-262    H    0.62955028    0.09347024    0.08458014    0.20370000
opls_146-263    H    0.41777000    0.04219980    0.07040020    0.20370000
opls_146-264    H    0.63417965    0.13208977    0.19737021    0.20380000
opls_146-265    H    0.42189994    0.08022009    0.18390020    0.20360000
opls_144-266    H    0.55437997    0.37077024    0.28956981    0.09900000
opls_525-267    H    0.40927985    0.16289007    0.56884022    0.20370000
opls_526-268    H    0.40225971    0.21370987    0.67144985    0.20380000
opls_524-269    H    0.61508017    0.37269006    0.65655015    0.09950000
F2_Ru6+2-270    Ru    0.33332999    0.66667027    0.47582006    0.39760000
F2_Ru6+2-271    Ru    0.66667028    0.33333027    0.52417994    0.39760000
