#======================================================================
# Crystal Data Generated By AuToFF
#----------------------------------------------------------------------

data_AuToFF_phase_1

_cell_length_a                         17.5557
_cell_length_b                         29.1609
_cell_length_c                         31.4425
_cell_angle_alpha                      90.00
_cell_angle_beta                       90.00
_cell_angle_gamma                      90.00
_symmetry_space_group_name_H-M_alt     'P 1'
_symmetry_space_group_IT_number        1

loop_
_space_group_symop_operation_xyz
   'x, y, z'

loop_
   _atom_site_label
   _atom_site_type_symbol
   _atom_site_fract_x
   _atom_site_fract_y
   _atom_site_fract_z
   _atom_site_charge
opls_700-0    C    0.13750975    0.04228985    0.13905987    0.04630000
opls_142-1    C    0.15042009    0.08583994    0.15712014    0.08560000
opls_145-2    C    0.65450025    0.32592993    0.29923002    -0.24590000
opls_145-3    C    0.70349972    0.36364001    0.29267011    0.16410000
opls_145-4    C    0.90036000    0.04151004    0.90363998    -0.11030000
opls_145-5    C    0.76879988    0.64431996    0.73642013    -0.24590000
opls_145-6    C    0.17759018    0.78017002    0.21737998    -0.23790000
opls_145-7    C    0.28529025    0.81205998    0.25371011    -0.10520000
opls_700-8    C    0.24180978    0.77198989    0.24390999    0.04640000
opls_700-9    C    0.63854987    0.45761996    0.36422994    0.04630000
opls_142-10    C    0.65513993    0.41411993    0.34698004    0.08560000
opls_145-11    C    0.16066975    0.17650998    0.20033999    -0.24700000
opls_145-12    C    0.20754000    0.13805987    0.20824012    0.16200000
opls_145-13    C    0.40064993    0.45856987    0.59938014    -0.11030000
opls_145-14    C    0.26841026    0.85659016    0.76750004    -0.24700000
opls_145-15    C    0.67219023    0.71778992    0.28305001    -0.21200000
opls_145-16    C    0.78608999    0.68738002    0.25163012    -0.09880000
opls_700-17    C    0.73960024    0.72678998    0.25929013    0.04880000
opls_700-18    C    0.63750975    0.54228985    0.63905987    0.04630000
opls_142-19    C    0.65042009    0.58583994    0.65712014    0.08560000
opls_145-20    C    0.15450025    0.82592993    0.79923002    -0.24590000
opls_145-21    C    0.20349972    0.86364001    0.79267011    0.16420000
opls_145-22    C    0.40036000    0.54151004    0.40363998    -0.11030000
opls_145-23    C    0.26879988    0.14431996    0.23642013    -0.24590000
opls_145-24    C    0.67759018    0.28017002    0.71737998    -0.23800000
opls_145-25    C    0.78529025    0.31205998    0.75371011    -0.10520000
opls_700-26    C    0.74180978    0.27198989    0.74390999    0.04640000
opls_700-27    C    0.13854987    0.95761996    0.86422994    0.04630000
opls_142-28    C    0.15513993    0.91411993    0.84698004    0.08560000
opls_145-29    C    0.66066975    0.67650998    0.70033999    -0.24700000
opls_145-30    C    0.70754000    0.63805987    0.70824012    0.16210000
opls_145-31    C    0.90064993    0.95856987    0.09938014    -0.11030000
opls_145-32    C    0.76841026    0.35659016    0.26750004    -0.24700000
opls_145-33    C    0.17219023    0.21778992    0.78305001    -0.21200000
opls_145-34    C    0.28608999    0.18738002    0.75163012    -0.09880000
opls_700-35    C    0.23960024    0.22678998    0.75929013    0.04880000
opls_700-36    C    0.86249025    0.95771015    0.13905987    0.04630000
opls_142-37    C    0.84957991    0.91416006    0.15712014    0.08560000
opls_145-38    C    0.34549975    0.67407007    0.29923002    -0.24590000
opls_145-39    C    0.29650028    0.63635999    0.29267011    0.16410000
opls_145-40    C    0.09964000    0.95848996    0.90363998    -0.11030000
opls_145-41    C    0.23120012    0.35568004    0.73642013    -0.24580000
opls_145-42    C    0.82240982    0.21982998    0.21737998    -0.23810000
opls_145-43    C    0.71470975    0.18794002    0.25371011    -0.10520000
opls_700-44    C    0.75819022    0.22801011    0.24390999    0.04640000
opls_700-45    C    0.36145013    0.54238004    0.36422994    0.04630000
opls_142-46    C    0.34486007    0.58588007    0.34698004    0.08560000
opls_145-47    C    0.83933025    0.82349002    0.20033999    -0.24700000
opls_145-48    C    0.79246000    0.86194013    0.20824012    0.16200000
opls_145-49    C    0.59935007    0.54143013    0.59938014    -0.11030000
opls_145-50    C    0.73158974    0.14340984    0.76750004    -0.24690000
opls_145-51    C    0.32780977    0.28221008    0.28305001    -0.21200000
opls_145-52    C    0.21391001    0.31261998    0.25163012    -0.09880000
opls_700-53    C    0.26039976    0.27321002    0.25929013    0.04880000
opls_700-54    C    0.36249025    0.45771015    0.63905987    0.04630000
opls_142-55    C    0.34957991    0.41416006    0.65712014    0.08560000
opls_145-56    C    0.84549975    0.17407007    0.79923002    -0.24590000
opls_145-57    C    0.79650028    0.13635999    0.79267011    0.16410000
opls_145-58    C    0.59964000    0.45848996    0.40363998    -0.11030000
opls_145-59    C    0.73120012    0.85568004    0.23642013    -0.24590000
opls_145-60    C    0.32240982    0.71982998    0.71737998    -0.23810000
opls_145-61    C    0.21470975    0.68794002    0.75371011    -0.10520000
opls_700-62    C    0.25819022    0.72801011    0.74390999    0.04640000
opls_700-63    C    0.86145013    0.04238004    0.86422994    0.04630000
opls_142-64    C    0.84486007    0.08588007    0.84698004    0.08560000
opls_145-65    C    0.33933025    0.32349002    0.70033999    -0.24700000
opls_145-66    C    0.29246000    0.36194013    0.70824012    0.16200000
opls_145-67    C    0.09935007    0.04143013    0.09938014    -0.11030000
opls_145-68    C    0.23158974    0.64340984    0.26750004    -0.24700000
opls_145-69    C    0.82780977    0.78221008    0.78305001    -0.21200000
opls_145-70    C    0.71391001    0.81261998    0.75163012    -0.09880000
opls_700-71    C    0.76039976    0.77321002    0.75929013    0.04880000
opls_700-72    C    0.13750975    0.95771015    0.13905987    0.04630000
opls_142-73    C    0.15042009    0.91416006    0.15712014    0.08560000
opls_145-74    C    0.65450025    0.67407007    0.29923002    -0.24590000
opls_145-75    C    0.70349972    0.63635999    0.29267011    0.16410000
opls_145-76    C    0.90036000    0.95848996    0.90363998    -0.11030000
opls_145-77    C    0.76879988    0.35568004    0.73642013    -0.24590000
opls_145-78    C    0.17759018    0.21982998    0.21737998    -0.23810000
opls_145-79    C    0.28529025    0.18794002    0.25371011    -0.10520000
opls_700-80    C    0.24180978    0.22801011    0.24390999    0.04640000
opls_700-81    C    0.63854987    0.54238004    0.36422994    0.04630000
opls_142-82    C    0.65513993    0.58588007    0.34698004    0.08560000
opls_145-83    C    0.16066975    0.82349002    0.20033999    -0.24700000
opls_145-84    C    0.20754000    0.86194013    0.20824012    0.16200000
opls_145-85    C    0.40064993    0.54143013    0.59938014    -0.11030000
opls_145-86    C    0.26841026    0.14340984    0.76750004    -0.24700000
opls_145-87    C    0.67219023    0.28221008    0.28305001    -0.21200000
opls_145-88    C    0.78608999    0.31261998    0.25163012    -0.09880000
opls_700-89    C    0.73960024    0.27321002    0.25929013    0.04880000
opls_700-90    C    0.63750975    0.45771015    0.63905987    0.04630000
opls_142-91    C    0.65042009    0.41416006    0.65712014    0.08560000
opls_145-92    C    0.15450025    0.17407007    0.79923002    -0.24590000
opls_145-93    C    0.20349972    0.13635999    0.79267011    0.16420000
opls_145-94    C    0.40036000    0.45848996    0.40363998    -0.11030000
opls_145-95    C    0.26879988    0.85568004    0.23642013    -0.24590000
opls_145-96    C    0.67759018    0.71982998    0.71737998    -0.23810000
opls_145-97    C    0.78529025    0.68794002    0.75371011    -0.10520000
opls_700-98    C    0.74180978    0.72801011    0.74390999    0.04640000
opls_700-99    C    0.13854987    0.04238004    0.86422994    0.04630000
opls_142-100    C    0.15513993    0.08588007    0.84698004    0.08560000
opls_145-101    C    0.66066975    0.32349002    0.70033999    -0.24700000
opls_145-102    C    0.70754000    0.36194013    0.70824012    0.16200000
opls_145-103    C    0.90064993    0.04143013    0.09938014    -0.11030000
opls_145-104    C    0.76841026    0.64340984    0.26750004    -0.24700000
opls_145-105    C    0.17219023    0.78221008    0.78305001    -0.21200000
opls_145-106    C    0.28608999    0.81261998    0.75163012    -0.09880000
opls_700-107    C    0.23960024    0.77321002    0.75929013    0.04880000
opls_700-108    C    0.86249025    0.04228985    0.13905987    0.04630000
opls_142-109    C    0.84957991    0.08583994    0.15712014    0.08560000
opls_145-110    C    0.34549975    0.32592993    0.29923002    -0.24590000
opls_145-111    C    0.29650028    0.36364001    0.29267011    0.16410000
opls_145-112    C    0.09964000    0.04151004    0.90363998    -0.11030000
opls_145-113    C    0.23120012    0.64431996    0.73642013    -0.24590000
opls_145-114    C    0.82240982    0.78017002    0.21737998    -0.23810000
opls_145-115    C    0.71470975    0.81205998    0.25371011    -0.10520000
opls_700-116    C    0.75819022    0.77198989    0.24390999    0.04640000
opls_700-117    C    0.36145013    0.45761996    0.36422994    0.04630000
opls_142-118    C    0.34486007    0.41411993    0.34698004    0.08560000
opls_145-119    C    0.83933025    0.17650998    0.20033999    -0.24700000
opls_145-120    C    0.79246000    0.13805987    0.20824012    0.16200000
opls_145-121    C    0.59935007    0.45856987    0.59938014    -0.11030000
opls_145-122    C    0.73158974    0.85659016    0.76750004    -0.24700000
opls_145-123    C    0.32780977    0.71778992    0.28305001    -0.21200000
opls_145-124    C    0.21391001    0.68738002    0.25163012    -0.09880000
opls_700-125    C    0.26039976    0.72678998    0.25929013    0.04880000
opls_700-126    C    0.36249025    0.54228985    0.63905987    0.04630000
opls_142-127    C    0.34957991    0.58583994    0.65712014    0.08560000
opls_145-128    C    0.84549975    0.82592993    0.79923002    -0.24580000
opls_145-129    C    0.79650028    0.86364001    0.79267011    0.16410000
opls_145-130    C    0.59964000    0.54151004    0.40363998    -0.11030000
opls_145-131    C    0.73120012    0.14431996    0.23642013    -0.24590000
opls_145-132    C    0.32240982    0.28017002    0.71737998    -0.23810000
opls_145-133    C    0.21470975    0.31205998    0.75371011    -0.10520000
opls_700-134    C    0.25819022    0.27198989    0.74390999    0.04640000
opls_700-135    C    0.86145013    0.95761996    0.86422994    0.04630000
opls_142-136    C    0.84486007    0.91411993    0.84698004    0.08570000
opls_145-137    C    0.33933025    0.67650998    0.70033999    -0.24700000
opls_145-138    C    0.29246000    0.63805987    0.70824012    0.16200000
opls_145-139    C    0.09935007    0.95856987    0.09938014    -0.11030000
opls_145-140    C    0.23158974    0.35659016    0.26750004    -0.24700000
opls_145-141    C    0.82780977    0.21778992    0.78305001    -0.21200000
opls_145-142    C    0.71391001    0.18738002    0.75163012    -0.09880000
opls_700-143    C    0.76039976    0.22678998    0.75929013    0.04880000
opls_700-144    C    0.04057998    0.00000000    0.04026016    0.02110000
opls_145-145    C    0.15781028    0.00000000    0.84472004    -0.24560000
opls_700-146    C    0.07995010    0.00000000    0.92336996    0.06770000
opls_700-147    C    0.95938983    0.00000000    0.96253002    0.02110000
opls_145-148    C    0.84214016    0.00000000    0.15834014    -0.24470000
opls_700-149    C    0.91984996    0.00000000    0.07941989    0.06770000
opls_700-150    C    0.08214027    0.00000000    0.00140002    0.04340000
opls_148-151    C    0.16782982    0.00000000    0.00264006    -0.55120000
opls_700-152    C    0.54057998    0.50000000    0.54026016    0.02110000
opls_145-153    C    0.65781028    0.50000000    0.34472004    -0.24550000
opls_700-154    C    0.57995010    0.50000000    0.42336996    0.06780000
opls_700-155    C    0.45938983    0.50000000    0.46253002    0.02110000
opls_145-156    C    0.34214016    0.50000000    0.65834014    -0.24480000
opls_700-157    C    0.41984996    0.50000000    0.57941989    0.06770000
opls_700-158    C    0.58214027    0.50000000    0.50140002    0.04340000
opls_148-159    C    0.66782982    0.50000000    0.50264006    -0.55120000
opls_700-160    C    0.95942002    0.00000000    0.04026016    0.02110000
opls_145-161    C    0.84218972    0.00000000    0.84472004    -0.24550000
opls_700-162    C    0.92004990    0.00000000    0.92336996    0.06770000
opls_700-163    C    0.04061017    0.00000000    0.96253002    0.02110000
opls_145-164    C    0.15785984    0.00000000    0.15834014    -0.24480000
opls_700-165    C    0.08015004    0.00000000    0.07941989    0.06770000
opls_700-166    C    0.91785973    0.00000000    0.00140002    0.04340000
opls_148-167    C    0.83217018    0.00000000    0.00264006    -0.55130000
opls_700-168    C    0.45942002    0.50000000    0.54026016    0.02110000
opls_145-169    C    0.34218972    0.50000000    0.34472004    -0.24560000
opls_700-170    C    0.42004990    0.50000000    0.42336996    0.06770000
opls_700-171    C    0.54061017    0.50000000    0.46253002    0.02110000
opls_145-172    C    0.65785984    0.50000000    0.65834014    -0.24480000
opls_700-173    C    0.58015004    0.50000000    0.57941989    0.06770000
opls_700-174    C    0.41785973    0.50000000    0.50140002    0.04340000
opls_148-175    C    0.33217018    0.50000000    0.50264006    -0.55130000
opls_750-176    N    0.19154007    0.09410992    0.80978007    -0.37450000
opls_750-177    N    0.69764977    0.40393986    0.68989998    -0.37180000
opls_750-178    N    0.69154007    0.59410992    0.30978007    -0.37440000
opls_750-179    N    0.19764977    0.90393986    0.18989998    -0.37190000
opls_750-180    N    0.80845993    0.90589008    0.80978007    -0.37440000
opls_750-181    N    0.30235023    0.59606014    0.68989998    -0.37180000
opls_750-182    N    0.30845993    0.40589008    0.30978007    -0.37450000
opls_750-183    N    0.80235023    0.09606014    0.18989998    -0.37190000
opls_750-184    N    0.19154007    0.90589008    0.80978007    -0.37430000
opls_750-185    N    0.69764977    0.59606014    0.68989998    -0.37190000
opls_750-186    N    0.69154007    0.40589008    0.30978007    -0.37450000
opls_750-187    N    0.19764977    0.09606014    0.18989998    -0.37190000
opls_750-188    N    0.80845993    0.09410992    0.80978007    -0.37440000
opls_750-189    N    0.30235023    0.40393986    0.68989998    -0.37180000
opls_750-190    N    0.30845993    0.59410992    0.30978007    -0.37430000
opls_750-191    N    0.80235023    0.90393986    0.18989998    -0.37190000
opls_144-192    H    0.12218994    0.11245983    0.14309009    0.08970000
opls_146-193    H    0.60496021    0.32999016    0.31584003    0.18340000
opls_146-194    H    0.91511988    0.07148991    0.91857009    0.18340000
opls_146-195    H    0.80273985    0.61696004    0.74391985    0.18350000
opls_146-196    H    0.14059992    0.75485016    0.20921015    0.18360000
opls_146-197    H    0.33082019    0.81087998    0.27369993    0.18390000
opls_144-198    H    0.63897993    0.38612011    0.36449996    0.08940000
opls_146-199    H    0.11288983    0.17378990    0.18212992    0.18350000
opls_146-200    H    0.41542975    0.42859000    0.58442999    0.18340000
opls_146-201    H    0.30392978    0.88355984    0.76119997    0.18340000
opls_146-202    H    0.63329973    0.74273016    0.28937012    0.18370000
opls_146-203    H    0.83492997    0.68913991    0.23435000    0.18360000
opls_702-204    H    0.18810984    0.96959010    0.01939000    0.09100000
opls_144-205    H    0.62218994    0.61245983    0.64309009    0.08970000
opls_146-206    H    0.10496021    0.82999016    0.81584003    0.18340000
opls_146-207    H    0.41511988    0.57148991    0.41857009    0.18340000
opls_146-208    H    0.30273985    0.11696004    0.24391985    0.18350000
opls_146-209    H    0.64059992    0.25485016    0.70921015    0.18360000
opls_146-210    H    0.83082019    0.31087998    0.77369993    0.18380000
opls_144-211    H    0.13897993    0.88612011    0.86449996    0.08940000
opls_146-212    H    0.61288983    0.67378990    0.68212992    0.18350000
opls_146-213    H    0.91542975    0.92859000    0.08442999    0.18350000
opls_146-214    H    0.80392978    0.38355984    0.26119997    0.18340000
opls_146-215    H    0.13329973    0.24273016    0.78937012    0.18370000
opls_146-216    H    0.33492997    0.18913991    0.73435000    0.18360000
opls_702-217    H    0.68810984    0.46959010    0.51939000    0.09100000
opls_144-218    H    0.87781006    0.88754017    0.14309009    0.08970000
opls_146-219    H    0.39503979    0.67000984    0.31584003    0.18350000
opls_146-220    H    0.08488012    0.92851009    0.91857009    0.18340000
opls_146-221    H    0.19726015    0.38303996    0.74391985    0.18340000
opls_146-222    H    0.85940008    0.24514984    0.20921015    0.18360000
opls_146-223    H    0.66917981    0.18912002    0.27369993    0.18380000
opls_144-224    H    0.36102007    0.61387989    0.36449996    0.08940000
opls_146-225    H    0.88711017    0.82621010    0.18212992    0.18350000
opls_146-226    H    0.58457025    0.57141000    0.58442999    0.18340000
opls_146-227    H    0.69607022    0.11644016    0.76119997    0.18340000
opls_146-228    H    0.36670027    0.25726984    0.28937012    0.18370000
opls_146-229    H    0.16507003    0.31086009    0.23435000    0.18360000
opls_702-230    H    0.81189016    0.03040990    0.01939000    0.09100000
opls_144-231    H    0.37781006    0.38754017    0.64309009    0.08970000
opls_146-232    H    0.89503979    0.17000984    0.81584003    0.18340000
opls_146-233    H    0.58488012    0.42851009    0.41857009    0.18340000
opls_146-234    H    0.69726015    0.88303996    0.24391985    0.18340000
opls_146-235    H    0.35940008    0.74514984    0.70921015    0.18360000
opls_146-236    H    0.16917981    0.68912002    0.77369993    0.18380000
opls_144-237    H    0.86102007    0.11387989    0.86449996    0.08950000
opls_146-238    H    0.38711017    0.32621010    0.68212992    0.18360000
opls_146-239    H    0.08457025    0.07141000    0.08442999    0.18350000
opls_146-240    H    0.19607022    0.61644016    0.26119997    0.18340000
opls_146-241    H    0.86670027    0.75726984    0.78937012    0.18370000
opls_146-242    H    0.66507003    0.81086009    0.73435000    0.18370000
opls_702-243    H    0.31189016    0.53040990    0.51939000    0.09100000
opls_144-244    H    0.12218994    0.88754017    0.14309009    0.08970000
opls_146-245    H    0.60496021    0.67000984    0.31584003    0.18350000
opls_146-246    H    0.91511988    0.92851009    0.91857009    0.18340000
opls_146-247    H    0.80273985    0.38303996    0.74391985    0.18340000
opls_146-248    H    0.14059992    0.24514984    0.20921015    0.18360000
opls_146-249    H    0.33082019    0.18912002    0.27369993    0.18380000
opls_144-250    H    0.63897993    0.61387989    0.36449996    0.08940000
opls_146-251    H    0.11288983    0.82621010    0.18212992    0.18350000
opls_146-252    H    0.41542975    0.57141000    0.58442999    0.18340000
opls_146-253    H    0.30392978    0.11644016    0.76119997    0.18340000
opls_146-254    H    0.63329973    0.25726984    0.28937012    0.18370000
opls_146-255    H    0.83492997    0.31086009    0.23435000    0.18370000
opls_702-256    H    0.18810984    0.03040990    0.01939000    0.09100000
opls_144-257    H    0.62218994    0.38754017    0.64309009    0.08970000
opls_146-258    H    0.10496021    0.17000984    0.81584003    0.18340000
opls_146-259    H    0.41511988    0.42851009    0.41857009    0.18340000
opls_146-260    H    0.30273985    0.88303996    0.24391985    0.18340000
opls_146-261    H    0.64059992    0.74514984    0.70921015    0.18360000
opls_146-262    H    0.83082019    0.68912002    0.77369993    0.18380000
opls_144-263    H    0.13897993    0.11387989    0.86449996    0.08940000
opls_146-264    H    0.61288983    0.32621010    0.68212992    0.18350000
opls_146-265    H    0.91542975    0.07141000    0.08442999    0.18340000
opls_146-266    H    0.80392978    0.61644016    0.26119997    0.18350000
opls_146-267    H    0.13329973    0.75726984    0.78937012    0.18370000
opls_146-268    H    0.33492997    0.81086009    0.73435000    0.18360000
opls_702-269    H    0.68810984    0.53040990    0.51939000    0.09100000
opls_144-270    H    0.87781006    0.11245983    0.14309009    0.08970000
opls_146-271    H    0.39503979    0.32999016    0.31584003    0.18340000
opls_146-272    H    0.08488012    0.07148991    0.91857009    0.18340000
opls_146-273    H    0.19726015    0.61696004    0.74391985    0.18350000
opls_146-274    H    0.85940008    0.75485016    0.20921015    0.18360000
opls_146-275    H    0.66917981    0.81087998    0.27369993    0.18380000
opls_144-276    H    0.36102007    0.38612011    0.36449996    0.08940000
opls_146-277    H    0.88711017    0.17378990    0.18212992    0.18350000
opls_146-278    H    0.58457025    0.42859000    0.58442999    0.18340000
opls_146-279    H    0.69607022    0.88355984    0.76119997    0.18340000
opls_146-280    H    0.36670027    0.74273016    0.28937012    0.18370000
opls_146-281    H    0.16507003    0.68913991    0.23435000    0.18360000
opls_702-282    H    0.81189016    0.96959010    0.01939000    0.09100000
opls_144-283    H    0.37781006    0.61245983    0.64309009    0.08970000
opls_146-284    H    0.89503979    0.82999016    0.81584003    0.18350000
opls_146-285    H    0.58488012    0.57148991    0.41857009    0.18340000
opls_146-286    H    0.69726015    0.11696004    0.24391985    0.18340000
opls_146-287    H    0.35940008    0.25485016    0.70921015    0.18360000
opls_146-288    H    0.16917981    0.31087998    0.77369993    0.18380000
opls_144-289    H    0.86102007    0.88612011    0.86449996    0.08940000
opls_146-290    H    0.38711017    0.67378990    0.68212992    0.18370000
opls_146-291    H    0.08457025    0.92859000    0.08442999    0.18340000
opls_146-292    H    0.19607022    0.38355984    0.26119997    0.18340000
opls_146-293    H    0.86670027    0.24273016    0.78937012    0.18370000
opls_146-294    H    0.66507003    0.18913991    0.73435000    0.18360000
opls_702-295    H    0.31189016    0.46959010    0.51939000    0.09110000
opls_146-296    H    0.18587980    0.00000000    0.81617015    0.18340000
opls_146-297    H    0.81400001    0.00000000    0.18686014    0.18340000
opls_702-298    H    0.19521979    0.00000000    0.97157001    0.08580000
opls_146-299    H    0.68587980    0.50000000    0.31617015    0.18340000
opls_146-300    H    0.31400001    0.50000000    0.68686014    0.18350000
opls_702-301    H    0.69521979    0.50000000    0.47157001    0.08580000
opls_146-302    H    0.81412020    0.00000000    0.81617015    0.18340000
opls_146-303    H    0.18599999    0.00000000    0.18686014    0.18340000
opls_702-304    H    0.80478021    0.00000000    0.97157001    0.08580000
opls_146-305    H    0.31412020    0.50000000    0.31617015    0.18340000
opls_146-306    H    0.68599999    0.50000000    0.68686014    0.18340000
opls_702-307    H    0.30478021    0.50000000    0.47157001    0.08580000
