#======================================================================
# Crystal Data Generated By AuToFF
#----------------------------------------------------------------------

data_AuToFF_phase_1

_cell_length_a                         20.8310
_cell_length_b                         20.8310
_cell_length_c                         3.4480
_cell_angle_alpha                      90.00
_cell_angle_beta                       90.00
_cell_angle_gamma                      120.00
_symmetry_space_group_name_H-M_alt     'P 1'
_symmetry_space_group_IT_number        1

loop_
_space_group_symop_operation_xyz
   'x, y, z'

loop_
   _atom_site_label
   _atom_site_type_symbol
   _atom_site_fract_x
   _atom_site_fract_y
   _atom_site_fract_z
   _atom_site_charge
opls_145-0    C    0.41081971    0.70617976    0.00000000    -0.15470000
opls_145-1    C    0.58918002    0.29381968    0.00000000    -0.15470000
opls_145-2    C    0.29382010    0.70463987    0.00000000    -0.15470000
opls_145-3    C    0.70617990    0.29536013    0.00000000    -0.15470000
opls_145-4    C    0.29537000    0.58917982    0.00000000    -0.15470000
opls_145-5    C    0.70463981    0.41081963    0.00000000    -0.15470000
opls_700-6    C    0.37304980    0.62844994    0.00000000    -0.03770000
opls_700-7    C    0.62695020    0.37155006    0.00000000    -0.03590000
opls_700-8    C    0.37154993    0.74459955    0.00000000    -0.03590000
opls_700-9    C    0.62844979    0.25539989    0.00000000    -0.03590000
opls_700-10    C    0.25539999    0.62694995    0.00000000    -0.03590000
opls_700-11    C    0.74460001    0.37305005    0.00000000    -0.03590000
opls_572-12    C    0.41416983    0.58785001    0.00000000    0.39010000
opls_572-13    C    0.58583017    0.41214999    0.00000000    0.39010000
opls_572-14    C    0.41214992    0.82631991    0.00000000    0.39010000
opls_572-15    C    0.58785008    0.17368009    0.00000000    0.39010000
opls_572-16    C    0.17368024    0.58583007    0.00000000    0.39010000
opls_572-17    C    0.82631976    0.41416993    0.00000000    0.39010000
opls_507-18    C    0.50141001    0.56599990    0.00000000    0.11730000
opls_507-19    C    0.49858999    0.43400010    0.00000000    0.11730000
opls_507-20    C    0.43400000    0.93541971    0.00000000    0.11730000
opls_507-21    C    0.56599972    0.06457973    0.00000000    0.11730000
opls_507-22    C    0.06457982    0.49858981    0.00000000    0.11730000
opls_507-23    C    0.93541990    0.50140963    0.00000000    0.11730000
opls_145-24    C    0.56960976    0.56820996    0.00000000    -0.22360000
opls_145-25    C    0.43039024    0.43179004    0.00000000    -0.22360000
opls_145-26    C    0.43179031    0.00140021    0.00000000    -0.22220000
opls_145-27    C    0.56820969    0.99859979    0.00000000    -0.22210000
opls_145-28    C    0.99859994    0.43038983    0.00000000    -0.22210000
opls_145-29    C    0.00139979    0.56960962    0.00000000    -0.22360000
opls_575-30    C    0.56522989    0.49909979    0.00000000    0.19530000
opls_575-31    C    0.43476983    0.50089966    0.00000000    0.19530000
opls_575-32    C    0.50090004    0.06613016    0.00000000    0.19530000
opls_575-33    C    0.49909996    0.93386984    0.00000000    0.19510000
opls_575-34    C    0.93387007    0.43477005    0.00000000    0.19530000
opls_575-35    C    0.06612993    0.56522995    0.00000000    0.19530000
opls_146-36    H    0.47101995    0.73715007    0.00000000    0.12510000
opls_146-37    H    0.52898005    0.26284993    0.00000000    0.12500000
opls_146-38    H    0.26285003    0.73386962    0.00000000    0.12510000
opls_146-39    H    0.73714969    0.26612983    0.00000000    0.12510000
opls_146-40    H    0.26612974    0.52897976    0.00000000    0.12510000
opls_146-41    H    0.73386998    0.47101969    0.00000000    0.12510000
opls_146-42    H    0.62202997    0.61939958    0.00000000    0.12660000
opls_146-43    H    0.37796975    0.38059986    0.00000000    0.12660000
opls_146-44    H    0.38060032    0.00263024    0.00000000    0.12660000
opls_146-45    H    0.61939968    0.99736976    0.00000000    0.12660000
opls_146-46    H    0.99737019    0.37797018    0.00000000    0.12660000
opls_146-47    H    0.00262981    0.62202982    0.00000000    0.12650000
opls_573-48    N    0.48951012    0.62299988    0.00000000    -0.32350000
opls_573-49    N    0.51048988    0.37700012    0.00000000    -0.32350000
opls_573-50    N    0.37699972    0.86650965    0.00000000    -0.32310000
opls_573-51    N    0.62300000    0.13348980    0.00000000    -0.32310000
opls_573-52    N    0.13348988    0.51048992    0.00000000    -0.32920000
opls_573-53    N    0.86651012    0.48951008    0.00000000    -0.32920000
opls_180-54    O    0.62037023    0.48602010    0.00000000    -0.21530000
opls_180-55    O    0.37962977    0.51397990    0.00000000    -0.21530000
opls_180-56    O    0.51397981    0.13435010    0.00000000    -0.21530000
opls_180-57    O    0.48602019    0.86564990    0.00000000    -0.21530000
opls_180-58    O    0.86564996    0.37962980    0.00000000    -0.21530000
opls_180-59    O    0.13434977    0.62036964    0.00000000    -0.21530000
