#======================================================================
# Crystal Data Generated By AuToFF
#----------------------------------------------------------------------

data_AuToFF_phase_1

_cell_length_a                         67.2500
_cell_length_b                         67.2500
_cell_length_c                         3.7539
_cell_angle_alpha                      90.00
_cell_angle_beta                       90.00
_cell_angle_gamma                      120.00
_symmetry_space_group_name_H-M_alt     'P 1'
_symmetry_space_group_IT_number        1

loop_
_space_group_symop_operation_xyz
   'x, y, z'

loop_
   _atom_site_label
   _atom_site_type_symbol
   _atom_site_fract_x
   _atom_site_fract_y
   _atom_site_fract_z
   _atom_site_charge
opls_700-0    C    0.34943001    0.75868992    0.01408935    0.05930000
opls_145-1    C    0.32896003    0.74003991    0.14094941    -0.12240000
opls_145-2    C    0.32480004    0.71762001    0.10396921    -0.13320000
opls_700-3    C    0.34079005    0.71316999    0.93133008    0.06560000
opls_145-4    C    0.36089000    0.73190996    0.79229068    -0.13120000
opls_145-5    C    0.36530004    0.75434996    0.83829084    -0.12070000
opls_700-6    C    0.33693998    0.68928993    0.90887077    0.06680000
opls_145-7    C    0.31458989    0.67022990    0.90667040    -0.17880000
opls_700-8    C    0.35488001    0.78256002    0.08791923    0.06300000
opls_145-9    C    0.37709995    0.79910993    0.19644103    -0.12070000
opls_145-10    C    0.38187001    0.82100992    0.29744000    -0.20810000
opls_166-11    C    0.36478994    0.82702998    0.28353979    0.24810000
opls_145-12    C    0.34259001    0.81071995    0.17157090    -0.23850000
opls_145-13    C    0.33771005    0.78867006    0.07298010    -0.13550000
opls_465-14    C    0.50463003    0.36755001    0.82743014    0.47850000
opls_700-15    C    0.49706997    0.61202990    0.07755934    -0.04270000
opls_145-16    C    0.47913001    0.59008991    0.16729002    -0.12350000
opls_145-17    C    0.48043009    0.57061006    0.08181891    -0.12250000
opls_700-18    C    0.49980003    0.57246995    0.90745891    0.06610000
opls_145-19    C    0.51748000    0.59449992    0.80871094    -0.13380000
opls_145-20    C    0.51624997    0.61406990    0.89625989    -0.12890000
opls_700-21    C    0.50053002    0.55130004    0.80875889    0.03170000
opls_145-22    C    0.48042002    0.53236003    0.67848105    -0.12590000
opls_145-23    C    0.48013002    0.51256992    0.56214071    -0.12350000
opls_700-24    C    0.50005992    0.51063999    0.56937052    0.06000000
opls_145-25    C    0.52006998    0.52937000    0.71533072    -0.18320000
opls_700-26    C    0.52051998    0.54935997    0.83764085    0.09870000
opls_148-27    C    0.54249990    0.56764991    0.00485096    -0.45930000
opls_700-28    C    0.24131006    0.59073997    0.01408935    0.05930000
opls_145-29    C    0.25996004    0.58891992    0.14094941    -0.12240000
opls_145-30    C    0.28238003    0.60717999    0.10396921    -0.13320000
opls_700-31    C    0.28682992    0.62761999    0.93133008    0.06560000
opls_145-32    C    0.26809002    0.62898005    0.79229068    -0.13120000
opls_145-33    C    0.24565005    0.61095006    0.83829084    -0.12070000
opls_700-34    C    0.31071004    0.64764997    0.90887077    0.06680000
opls_145-35    C    0.32977002    0.64435997    0.90667040    -0.17900000
opls_700-36    C    0.21744003    0.57232005    0.08791923    0.06300000
opls_145-37    C    0.20089003    0.57799002    0.19644103    -0.12060000
opls_145-38    C    0.17898996    0.56085993    0.29744000    -0.20810000
opls_166-39    C    0.17296992    0.53775991    0.28353979    0.25040000
opls_145-40    C    0.18927998    0.53186999    0.17157090    -0.23850000
opls_145-41    C    0.21132992    0.54903992    0.07298010    -0.13550000
opls_465-42    C    0.63245005    0.13708003    0.82743014    0.47860000
opls_700-43    C    0.38796992    0.88503991    0.07755934    -0.04270000
opls_145-44    C    0.40990998    0.88903989    0.16729002    -0.12350000
opls_145-45    C    0.42939002    0.90982004    0.08181891    -0.12250000
opls_700-46    C    0.42752995    0.92732993    0.90745891    0.06610000
opls_145-47    C    0.40549997    0.92298002    0.80871094    -0.13380000
opls_145-48    C    0.38592998    0.90217995    0.89625989    -0.12890000
opls_700-49    C    0.44870002    0.94922992    0.80875889    0.03170000
opls_145-50    C    0.46763993    0.94805994    0.67848105    -0.12600000
opls_145-51    C    0.48742998    0.96756004    0.56214071    -0.12350000
opls_700-52    C    0.48935998    0.98942002    0.56937052    0.06000000
opls_145-53    C    0.47062995    0.99069990    0.71533072    -0.18320000
opls_700-54    C    0.45063991    0.97115996    0.83764085    0.09870000
opls_148-55    C    0.43235007    0.97485002    0.00485096    -0.45940000
opls_700-56    C    0.40925999    0.65056994    0.01408935    0.05930000
opls_145-57    C    0.41108000    0.67103999    0.14094941    -0.12240000
opls_145-58    C    0.39281993    0.67520000    0.10396921    -0.13320000
opls_700-59    C    0.37238003    0.65921002    0.93133008    0.06560000
opls_145-60    C    0.37101998    0.63910999    0.79229068    -0.13120000
opls_145-61    C    0.38904991    0.63469998    0.83829084    -0.12070000
opls_700-62    C    0.35234989    0.66305994    0.90887077    0.06680000
opls_145-63    C    0.35564000    0.68540996    0.90667040    -0.17900000
opls_700-64    C    0.42767996    0.64511993    0.08791923    0.06300000
opls_145-65    C    0.42201003    0.62290005    0.19644103    -0.12070000
opls_145-66    C    0.43913994    0.61812998    0.29744000    -0.20810000
opls_166-67    C    0.46223991    0.63520993    0.28353979    0.24810000
opls_145-68    C    0.46813001    0.65741006    0.17157090    -0.23850000
opls_145-69    C    0.45096003    0.66229002    0.07298010    -0.13550000
opls_465-70    C    0.86291992    0.49536995    0.82743014    0.47850000
opls_700-71    C    0.11496003    0.50293002    0.07755934    -0.04270000
opls_145-72    C    0.11096007    0.52087003    0.16729002    -0.12350000
opls_145-73    C    0.09017998    0.51957007    0.08181891    -0.12250000
opls_700-74    C    0.07266994    0.50019995    0.90745891    0.06610000
opls_145-75    C    0.07702003    0.48252007    0.80871094    -0.13380000
opls_145-76    C    0.09781997    0.48374997    0.89625989    -0.12890000
opls_700-77    C    0.05076996    0.49947004    0.80875889    0.03170000
opls_145-78    C    0.05194005    0.51958003    0.67848105    -0.12600000
opls_145-79    C    0.03244000    0.51987003    0.56214071    -0.12340000
opls_700-80    C    0.01057996    0.49993999    0.56937052    0.06000000
opls_145-81    C    0.00929998    0.47992993    0.71533072    -0.18320000
opls_700-82    C    0.02883996    0.47948007    0.83764085    0.09870000
opls_148-83    C    0.02515003    0.45750007    0.00485096    -0.45940000
opls_700-84    C    0.65056990    0.24130991    0.98591065    0.05930000
opls_145-85    C    0.67104003    0.25995991    0.85905059    -0.12240000
opls_145-86    C    0.67519996    0.28237999    0.89603079    -0.13320000
opls_700-87    C    0.65920995    0.28683001    0.06866992    0.06560000
opls_145-88    C    0.63911000    0.26809004    0.20770932    -0.13120000
opls_145-89    C    0.63469996    0.24565004    0.16170916    -0.12070000
opls_700-90    C    0.66306002    0.31071007    0.09112923    0.06680000
opls_145-91    C    0.68541002    0.32976993    0.09332960    -0.17900000
opls_700-92    C    0.64511999    0.21743998    0.91208077    0.06300000
opls_145-93    C    0.62290005    0.20089007    0.80355897    -0.12070000
opls_145-94    C    0.61812990    0.17898991    0.70256000    -0.20810000
opls_166-95    C    0.63521006    0.17297002    0.71646021    0.25040000
opls_145-96    C    0.65740999    0.18928005    0.82842910    -0.23850000
opls_145-97    C    0.66228995    0.21132994    0.92701990    -0.13550000
opls_465-98    C    0.49536997    0.63244999    0.17256986    0.47850000
opls_700-99    C    0.50292994    0.38796993    0.92244066    -0.04270000
opls_145-100    C    0.52086991    0.40990992    0.83270998    -0.12350000
opls_145-101    C    0.51956991    0.42938994    0.91818109    -0.12250000
opls_700-102    C    0.50019997    0.42753005    0.09254109    0.06610000
opls_145-103    C    0.48251992    0.40549991    0.19128906    -0.13380000
opls_145-104    C    0.48374994    0.38592993    0.10374011    -0.12890000
opls_700-105    C    0.49946998    0.44869996    0.19124111    0.03170000
opls_145-106    C    0.51957998    0.46763997    0.32151895    -0.12600000
opls_145-107    C    0.51986990    0.48742990    0.43785929    -0.12350000
opls_700-108    C    0.49994008    0.48936001    0.43062948    0.06000000
opls_145-109    C    0.47993002    0.47063000    0.28466928    -0.18320000
opls_700-110    C    0.47948002    0.45064003    0.16235915    0.09870000
opls_148-111    C    0.45750001    0.43234992    0.99514904    -0.45940000
opls_700-112    C    0.75868994    0.40926003    0.98591065    0.05930000
opls_145-113    C    0.74003988    0.41107991    0.85905059    -0.12230000
opls_145-114    C    0.71761997    0.39282001    0.89603079    -0.13320000
opls_700-115    C    0.71317008    0.37238001    0.06866992    0.06560000
opls_145-116    C    0.73190998    0.37101995    0.20770932    -0.13120000
opls_145-117    C    0.75434995    0.38904994    0.16170916    -0.12070000
opls_700-118    C    0.68928996    0.35235003    0.09112923    0.06680000
opls_145-119    C    0.67022998    0.35564003    0.09332960    -0.17900000
opls_700-120    C    0.78255997    0.42767995    0.91208077    0.06300000
opls_145-121    C    0.79910997    0.42200998    0.80355897    -0.12070000
opls_145-122    C    0.82101004    0.43914007    0.70256000    -0.20810000
opls_166-123    C    0.82703000    0.46223992    0.71646021    0.25050000
opls_145-124    C    0.81072002    0.46813001    0.82842910    -0.23850000
opls_145-125    C    0.78866999    0.45095991    0.92701990    -0.13540000
opls_465-126    C    0.36754995    0.86291997    0.17256986    0.47850000
opls_700-127    C    0.61203000    0.11495992    0.92244066    -0.04270000
opls_145-128    C    0.59008993    0.11095994    0.83270998    -0.12340000
opls_145-129    C    0.57060998    0.09017996    0.91818109    -0.12250000
opls_700-130    C    0.57247005    0.07267007    0.09254109    0.06610000
opls_145-131    C    0.59450003    0.07701998    0.19128906    -0.13380000
opls_145-132    C    0.61407002    0.09782005    0.10374011    -0.12890000
opls_700-133    C    0.55129998    0.05077008    0.19124111    0.03170000
opls_145-134    C    0.53236007    0.05194006    0.32151895    -0.12600000
opls_145-135    C    0.51257002    0.03243996    0.43785929    -0.12350000
opls_700-136    C    0.51064002    0.01057998    0.43062948    0.06010000
opls_145-137    C    0.52936997    0.00929993    0.28466928    -0.18310000
opls_700-138    C    0.54936009    0.02884004    0.16235915    0.09870000
opls_148-139    C    0.56764993    0.02514998    0.99514904    -0.45940000
opls_700-140    C    0.59074001    0.34943006    0.98591065    0.05930000
opls_145-141    C    0.58892000    0.32896001    0.85905059    -0.12240000
opls_145-142    C    0.60718007    0.32480000    0.89603079    -0.13320000
opls_700-143    C    0.62761997    0.34078998    0.06866992    0.06560000
opls_145-144    C    0.62898002    0.36089001    0.20770932    -0.13120000
opls_145-145    C    0.61094994    0.36530002    0.16170916    -0.12070000
opls_700-146    C    0.64764996    0.33694006    0.09112923    0.06680000
opls_145-147    C    0.64436000    0.31459004    0.09332960    -0.17900000
opls_700-148    C    0.57232004    0.35488007    0.91208077    0.06300000
opls_145-149    C    0.57798997    0.37709995    0.80355897    -0.12070000
opls_145-150    C    0.56086006    0.38187002    0.70256000    -0.20810000
opls_166-151    C    0.53776009    0.36479007    0.71646021    0.24810000
opls_145-152    C    0.53186999    0.34258994    0.82842910    -0.23850000
opls_145-153    C    0.54903997    0.33770998    0.92701990    -0.13550000
opls_465-154    C    0.13708008    0.50463005    0.17256986    0.47870000
opls_700-155    C    0.88503997    0.49706998    0.92244066    -0.04270000
opls_145-156    C    0.88903993    0.47912997    0.83270998    -0.12350000
opls_145-157    C    0.90982002    0.48042993    0.91818109    -0.12250000
opls_700-158    C    0.92733006    0.49980005    0.09254109    0.06610000
opls_145-159    C    0.92297997    0.51747993    0.19128906    -0.13380000
opls_145-160    C    0.90218003    0.51625003    0.10374011    -0.12890000
opls_700-161    C    0.94923004    0.50052996    0.19124111    0.03180000
opls_145-162    C    0.94805995    0.48041997    0.32151895    -0.12600000
opls_145-163    C    0.96756000    0.48012997    0.43785929    -0.12340000
opls_700-164    C    0.98942004    0.50006001    0.43062948    0.06000000
opls_145-165    C    0.99070002    0.52007007    0.28466928    -0.18320000
opls_700-166    C    0.97116004    0.52051993    0.16235915    0.09870000
opls_148-167    C    0.97484997    0.54249993    0.99514904    -0.45920000
opls_146-168    H    0.31667994    0.74282991    0.28689896    0.11150000
opls_146-169    H    0.30950009    0.70400004    0.22705986    0.11620000
opls_146-170    H    0.37326008    0.72939006    0.64478010    0.11640000
opls_146-171    H    0.38111005    0.76833995    0.73343989    0.11280000
opls_146-172    H    0.30011991    0.67299998    0.91005887    0.11040000
opls_146-173    H    0.39062001    0.79488999    0.21668931    0.11290000
opls_146-174    H    0.39887990    0.83328992    0.39205893    0.11360000
opls_146-175    H    0.32892993    0.81476990    0.17065985    0.11640000
opls_146-176    H    0.32045993    0.77632000    0.98883028    0.11330000
opls_146-177    H    0.46400993    0.58790001    0.30445936    0.11290000
opls_146-178    H    0.46618999    0.55402994    0.15464983    0.11380000
opls_146-179    H    0.53212009    0.59668003    0.65845920    0.11550000
opls_146-180    H    0.53020003    0.63075992    0.81854871    0.11370000
opls_146-181    H    0.46387997    0.49916990    0.46470071    0.09090000
opls_146-182    H    0.53578996    0.52898006    0.74163936    0.21990000
opls_146-183    H    0.46463997    0.53287995    0.65866965    0.11620000
opls_702-184    H    0.55480001    0.57833995    0.79457098    0.16450000
opls_702-185    H    0.55057992    0.55967999    0.16479128    0.16440000
opls_702-186    H    0.53949000    0.57870997    0.18853992    0.09910000
opls_146-187    H    0.25717002    0.57384992    0.28689896    0.11150000
opls_146-188    H    0.29599999    0.60550005    0.22705986    0.11620000
opls_146-189    H    0.27060991    0.64386993    0.64478010    0.11640000
opls_146-190    H    0.23165991    0.61276994    0.73343989    0.11280000
opls_146-191    H    0.32700000    0.62711999    0.91005887    0.11040000
opls_146-192    H    0.20511005    0.59572999    0.21668931    0.11300000
opls_146-193    H    0.16670994    0.56558999    0.39205893    0.11360000
opls_146-194    H    0.18523007    0.51416006    0.17065985    0.11640000
opls_146-195    H    0.22367998    0.54414004    0.98883028    0.11340000
opls_146-196    H    0.41210005    0.87610999    0.30445936    0.11290000
opls_146-197    H    0.44596996    0.91216000    0.15464983    0.11380000
opls_146-198    H    0.40331998    0.93543996    0.65845920    0.11550000
opls_146-199    H    0.36923996    0.89943992    0.81854871    0.11360000
opls_146-200    H    0.50082992    0.96470995    0.46470071    0.09090000
opls_146-201    H    0.47101997    0.00680990    0.74163936    0.21990000
opls_146-202    H    0.46712002    0.93176003    0.65866965    0.11610000
opls_702-203    H    0.42165999    0.97645991    0.79457098    0.16430000
opls_702-204    H    0.44032000    0.99089993    0.16479128    0.16440000
opls_702-205    H    0.42129008    0.96078002    0.18853992    0.09910000
opls_146-206    H    0.42614996    0.68331999    0.28689896    0.11150000
opls_146-207    H    0.39449992    0.69049991    0.22705986    0.11620000
opls_146-208    H    0.35613001    0.62674001    0.64478010    0.11640000
opls_146-209    H    0.38722995    0.61888994    0.73343989    0.11280000
opls_146-210    H    0.37288009    0.69988003    0.91005887    0.11040000
opls_146-211    H    0.40426993    0.60938001    0.21668931    0.11290000
opls_146-212    H    0.43440992    0.60111991    0.39205893    0.11360000
opls_146-213    H    0.48584000    0.67107004    0.17065985    0.11640000
opls_146-214    H    0.45585994    0.67953996    0.98883028    0.11330000
opls_146-215    H    0.12389002    0.53599000    0.30445936    0.11290000
opls_146-216    H    0.08784005    0.53381006    0.15464983    0.11380000
opls_146-217    H    0.06455993    0.46788001    0.65845920    0.11550000
opls_146-218    H    0.10056007    0.46979999    0.81854871    0.11360000
opls_146-219    H    0.03529003    0.53611998    0.46470071    0.09100000
opls_146-220    H    0.99319007    0.46421004    0.74163936    0.21990000
opls_146-221    H    0.06824001    0.53536002    0.65866965    0.11610000
opls_702-222    H    0.02354006    0.44519997    0.79457098    0.16430000
opls_702-223    H    0.00909999    0.44941991    0.16479128    0.16440000
opls_702-224    H    0.03922006    0.46051002    0.18853992    0.09910000
opls_146-225    H    0.68331998    0.25716992    0.71310104    0.11150000
opls_146-226    H    0.69050006    0.29599996    0.77294014    0.11620000
opls_146-227    H    0.62673992    0.27060994    0.35521990    0.11640000
opls_146-228    H    0.61888995    0.23166005    0.26656011    0.11280000
opls_146-229    H    0.69987994    0.32700002    0.08994113    0.11040000
opls_146-230    H    0.60937999    0.20511001    0.78331069    0.11290000
opls_146-231    H    0.60112010    0.16671008    0.60794107    0.11360000
opls_146-232    H    0.67106998    0.18522993    0.82934015    0.11640000
opls_146-233    H    0.67953992    0.22368000    0.01116972    0.11330000
opls_146-234    H    0.53599007    0.41209999    0.69554064    0.11290000
opls_146-235    H    0.53381001    0.44597006    0.84535017    0.11380000
opls_146-236    H    0.46787991    0.40331997    0.34154080    0.11550000
opls_146-237    H    0.46979988    0.36923991    0.18145129    0.11360000
opls_146-238    H    0.53611994    0.50082992    0.53529929    0.09090000
opls_146-239    H    0.46420989    0.47101994    0.25836064    0.22000000
opls_146-240    H    0.53536003    0.46712005    0.34133035    0.11610000
opls_702-241    H    0.44519999    0.42166005    0.20542902    0.16450000
opls_702-242    H    0.44942008    0.44032001    0.83520872    0.16440000
opls_702-243    H    0.46051000    0.42129003    0.81146008    0.09910000
opls_146-244    H    0.74282990    0.42614991    0.71310104    0.11150000
opls_146-245    H    0.70400001    0.39449995    0.77294014    0.11630000
opls_146-246    H    0.72939009    0.35613007    0.35521990    0.11640000
opls_146-247    H    0.76834009    0.38723006    0.26656011    0.11280000
opls_146-248    H    0.67300000    0.37288001    0.08994113    0.11050000
opls_146-249    H    0.79488995    0.40427001    0.78331069    0.11290000
opls_146-250    H    0.83329006    0.43441001    0.60794107    0.11360000
opls_146-251    H    0.81476993    0.48583994    0.82934015    0.11640000
opls_146-252    H    0.77632002    0.45585996    0.01116972    0.11330000
opls_146-253    H    0.58789995    0.12389001    0.69554064    0.11290000
opls_146-254    H    0.55403004    0.08784000    0.84535017    0.11380000
opls_146-255    H    0.59668002    0.06456004    0.34154080    0.11550000
opls_146-256    H    0.63076004    0.10056008    0.18145129    0.11360000
opls_146-257    H    0.49917008    0.03529005    0.53529929    0.09090000
opls_146-258    H    0.52897995    0.99318993    0.25836064    0.21990000
opls_146-259    H    0.53287998    0.06823997    0.34133035    0.11610000
opls_702-260    H    0.57833992    0.02353992    0.20542902    0.16440000
opls_702-261    H    0.55968000    0.00910007    0.83520872    0.16440000
opls_702-262    H    0.57870992    0.03921998    0.81146008    0.09910000
opls_146-263    H    0.57385004    0.31668001    0.71310104    0.11150000
opls_146-264    H    0.60549999    0.30949991    0.77294014    0.11620000
opls_146-265    H    0.64386999    0.37325999    0.35521990    0.11640000
opls_146-266    H    0.61277005    0.38111006    0.26656011    0.11280000
opls_146-267    H    0.62711991    0.30011997    0.08994113    0.11040000
opls_146-268    H    0.59573007    0.39061999    0.78331069    0.11290000
opls_146-269    H    0.56558999    0.39887991    0.60794107    0.11360000
opls_146-270    H    0.51416000    0.32892996    0.82934015    0.11640000
opls_146-271    H    0.54414006    0.32046004    0.01116972    0.11330000
opls_146-272    H    0.87610998    0.46401000    0.69554064    0.11290000
opls_146-273    H    0.91215995    0.46618994    0.84535017    0.11390000
opls_146-274    H    0.93544007    0.53211999    0.34154080    0.11550000
opls_146-275    H    0.89944008    0.53020001    0.18145129    0.11360000
opls_146-276    H    0.96470997    0.46388002    0.53529929    0.09090000
opls_146-277    H    0.00680993    0.53578996    0.25836064    0.21990000
opls_146-278    H    0.93175999    0.46463998    0.34133035    0.11610000
opls_702-279    H    0.97646009    0.55480003    0.20542902    0.16430000
opls_702-280    H    0.99089992    0.55057992    0.83520872    0.16450000
opls_702-281    H    0.96077994    0.53948998    0.81146008    0.09910000
opls_473-282    O    0.52142990    0.36993994    0.58406990    -0.27540000
opls_466-283    O    0.50896004    0.65126997    0.05114947    -0.46540000
opls_473-284    O    0.63005995    0.15149001    0.58406990    -0.27540000
opls_466-285    O    0.34873001    0.85768990    0.05114947    -0.46530000
opls_473-286    O    0.84851000    0.47857005    0.58406990    -0.27540000
opls_466-287    O    0.14231001    0.49103995    0.05114947    -0.46520000
opls_473-288    O    0.47857010    0.63006006    0.41593010    -0.27540000
opls_466-289    O    0.49103996    0.34873003    0.94885053    -0.46530000
opls_473-290    O    0.36994005    0.84850999    0.41593010    -0.27540000
opls_466-291    O    0.65126991    0.14230993    0.94885053    -0.46530000
opls_473-292    O    0.15149000    0.52142995    0.41593010    -0.27540000
opls_466-293    O    0.85768999    0.50896005    0.94885053    -0.46540000
