#======================================================================
# Crystal Data Generated By AuToFF
#----------------------------------------------------------------------

data_AuToFF_phase_1

_cell_length_a                         28.8033
_cell_length_b                         31.6325
_cell_length_c                         4.0492
_cell_angle_alpha                      90.00
_cell_angle_beta                       90.00
_cell_angle_gamma                      90.00
_symmetry_space_group_name_H-M_alt     'P 1'
_symmetry_space_group_IT_number        1

loop_
_space_group_symop_operation_xyz
   'x, y, z'

loop_
   _atom_site_label
   _atom_site_type_symbol
   _atom_site_fract_x
   _atom_site_fract_y
   _atom_site_fract_z
   _atom_site_charge
opls_594-0    C    0.46498005    0.95029985    0.59244048    0.09460000
opls_595-1    C    0.47755986    0.90844985    0.55316112    0.00340000
opls_590-2    C    0.55340013    0.87492990    0.40476884    -0.18370000
opls_700-3    C    0.59956984    0.88450992    0.31722069    0.06130000
opls_592-4    C    0.61132995    0.92684992    0.24116122    -0.13980000
opls_593-5    C    0.57906004    0.95962001    0.28510076    -0.19230000
opls_700-6    C    0.63652012    0.85200000    0.34792058    0.05980000
opls_145-7    C    0.62879010    0.80970015    0.25570977    -0.14240000
opls_145-8    C    0.66290008    0.77892990    0.31283957    -0.14100000
opls_700-9    C    0.70521989    0.79007002    0.46178998    0.05020000
opls_145-10    C    0.71315995    0.83231012    0.54857009    -0.12910000
opls_145-11    C    0.67913989    0.86286003    0.49445076    -0.12810000
opls_142-12    C    0.74200005    0.75871999    0.52552109    0.06390000
opls_145-13    C    0.76909000    0.31302995    0.42748938    0.17420000
opls_145-14    C    0.81471984    0.30651988    0.53866937    -0.18440000
opls_145-15    C    0.84846007    0.33759014    0.49317890    -0.12790000
opls_700-16    C    0.83734989    0.37598008    0.33730120    0.05910000
opls_145-17    C    0.79153014    0.38271999    0.22948978    -0.14260000
opls_145-18    C    0.75764999    0.35143002    0.27621012    -0.18290000
opls_700-19    C    0.87317009    0.40951996    0.31227897    0.06320000
opls_592-20    C    0.91970989    0.39870007    0.23924973    -0.13400000
opls_593-21    C    0.95569987    0.42804995    0.28449076    -0.19230000
opls_594-22    C    0.94542986    0.46814005    0.40697916    0.09440000
opls_595-23    C    0.89945006    0.47960009    0.44607083    0.00340000
opls_590-24    C    0.86261991    0.45149008    0.40119036    -0.18060000
opls_594-25    C    0.53501995    0.04970015    0.59244048    0.09460000
opls_595-26    C    0.52244014    0.09155015    0.55316112    0.00340000
opls_590-27    C    0.44659987    0.12507010    0.40476884    -0.18370000
opls_700-28    C    0.40043016    0.11549008    0.31722069    0.06130000
opls_592-29    C    0.38867005    0.07315008    0.24116122    -0.13990000
opls_593-30    C    0.42093996    0.04037999    0.28510076    -0.19230000
opls_700-31    C    0.36347988    0.14800000    0.34792058    0.05980000
opls_145-32    C    0.37120990    0.19029985    0.25570977    -0.14240000
opls_145-33    C    0.33709992    0.22107010    0.31283957    -0.14100000
opls_700-34    C    0.29478011    0.20992998    0.46178998    0.05020000
opls_145-35    C    0.28684005    0.16768988    0.54857009    -0.12910000
opls_145-36    C    0.32086011    0.13713997    0.49445076    -0.12810000
opls_142-37    C    0.25799995    0.24128001    0.52552109    0.06390000
opls_145-38    C    0.23091000    0.68697005    0.42748938    0.17410000
opls_145-39    C    0.18528016    0.69348012    0.53866937    -0.18440000
opls_145-40    C    0.15153993    0.66240986    0.49317890    -0.12800000
opls_700-41    C    0.16265011    0.62401992    0.33730120    0.05910000
opls_145-42    C    0.20846986    0.61728001    0.22948978    -0.14260000
opls_145-43    C    0.24235001    0.64856998    0.27621012    -0.18290000
opls_700-44    C    0.12682991    0.59048004    0.31227897    0.06320000
opls_592-45    C    0.08029011    0.60129993    0.23924973    -0.13400000
opls_593-46    C    0.04430013    0.57195005    0.28449076    -0.19230000
opls_594-47    C    0.05457014    0.53185995    0.40697916    0.09440000
opls_595-48    C    0.10054994    0.52039991    0.44607083    0.00340000
opls_590-49    C    0.13738009    0.54850992    0.40119036    -0.18060000
opls_594-50    C    0.53501995    0.95029985    0.40755952    0.09460000
opls_595-51    C    0.52244014    0.90844985    0.44683888    0.00340000
opls_590-52    C    0.44659987    0.87492990    0.59523116    -0.18370000
opls_700-53    C    0.40043016    0.88450992    0.68277931    0.06130000
opls_592-54    C    0.38867005    0.92684992    0.75883878    -0.13990000
opls_593-55    C    0.42093996    0.95962001    0.71489924    -0.19230000
opls_700-56    C    0.36347988    0.85200000    0.65207942    0.05980000
opls_145-57    C    0.37120990    0.80970015    0.74429023    -0.14240000
opls_145-58    C    0.33709992    0.77892990    0.68716043    -0.14100000
opls_700-59    C    0.29478011    0.79007002    0.53821002    0.05020000
opls_145-60    C    0.28684005    0.83231012    0.45142991    -0.12910000
opls_145-61    C    0.32086011    0.86286003    0.50554924    -0.12810000
opls_142-62    C    0.25799995    0.75871999    0.47447891    0.06390000
opls_145-63    C    0.23091000    0.31302995    0.57251062    0.17410000
opls_145-64    C    0.18528016    0.30651988    0.46133063    -0.18440000
opls_145-65    C    0.15153993    0.33759014    0.50682110    -0.12800000
opls_700-66    C    0.16265011    0.37598008    0.66269880    0.05910000
opls_145-67    C    0.20846986    0.38271999    0.77051022    -0.14250000
opls_145-68    C    0.24235001    0.35143002    0.72378988    -0.18290000
opls_700-69    C    0.12682991    0.40951996    0.68772103    0.06320000
opls_592-70    C    0.08029011    0.39870007    0.76075027    -0.13400000
opls_593-71    C    0.04430013    0.42804995    0.71550924    -0.19230000
opls_594-72    C    0.05457014    0.46814005    0.59302084    0.09440000
opls_595-73    C    0.10054994    0.47960009    0.55392917    0.00340000
opls_590-74    C    0.13738009    0.45149008    0.59880964    -0.18050000
opls_594-75    C    0.46498005    0.04970015    0.40755952    0.09460000
opls_595-76    C    0.47755986    0.09155015    0.44683888    0.00340000
opls_590-77    C    0.55340013    0.12507010    0.59523116    -0.18360000
opls_700-78    C    0.59956984    0.11549008    0.68277931    0.06130000
opls_592-79    C    0.61132995    0.07315008    0.75883878    -0.13990000
opls_593-80    C    0.57906004    0.04037999    0.71489924    -0.19230000
opls_700-81    C    0.63652012    0.14800000    0.65207942    0.05990000
opls_145-82    C    0.62879010    0.19029985    0.74429023    -0.14240000
opls_145-83    C    0.66290008    0.22107010    0.68716043    -0.14100000
opls_700-84    C    0.70521989    0.20992998    0.53821002    0.05020000
opls_145-85    C    0.71315995    0.16768988    0.45142991    -0.12910000
opls_145-86    C    0.67913989    0.13713997    0.50554924    -0.12810000
opls_142-87    C    0.74200005    0.24128001    0.47447891    0.06390000
opls_145-88    C    0.76909000    0.68697005    0.57251062    0.17410000
opls_145-89    C    0.81471984    0.69348012    0.46133063    -0.18440000
opls_145-90    C    0.84846007    0.66240986    0.50682110    -0.12800000
opls_700-91    C    0.83734989    0.62401992    0.66269880    0.05910000
opls_145-92    C    0.79153014    0.61728001    0.77051022    -0.14260000
opls_145-93    C    0.75764999    0.64856998    0.72378988    -0.18280000
opls_700-94    C    0.87317009    0.59048004    0.68772103    0.06320000
opls_592-95    C    0.91970989    0.60129993    0.76075027    -0.13390000
opls_593-96    C    0.95569987    0.57195005    0.71550924    -0.19220000
opls_594-97    C    0.94542986    0.53185995    0.59302084    0.09440000
opls_595-98    C    0.89945006    0.52039991    0.55392917    0.00340000
opls_590-99    C    0.86261991    0.54850992    0.59880964    -0.18050000
opls_750-100    N    0.26631983    0.71832008    0.47701027    -0.36750000
opls_750-101    N    0.73368017    0.28167992    0.47701027    -0.36740000
opls_750-102    N    0.73368017    0.71832008    0.52298973    -0.36750000
opls_750-103    N    0.26631983    0.28167992    0.52298973    -0.36750000
opls_542-104    N    0.50000000    0.97726010    0.50000000    0.01470000
opls_542-105    N    0.50000000    0.02273990    0.50000000    0.01470000
opls_542-106    N    0.97502994    0.50000000    0.50000000    0.01470000
opls_542-107    N    0.02497006    0.50000000    0.50000000    0.01470000
opls_599-108    H    0.54298987    0.84302000    0.46603033    0.10710000
opls_601-109    H    0.64615999    0.93473990    0.16138990    0.10330000
opls_602-110    H    0.58976992    0.99135004    0.24328015    0.22480000
opls_146-111    H    0.59648999    0.80055007    0.13920034    0.10750000
opls_146-112    H    0.65654005    0.74652999    0.23905957    0.10330000
opls_146-113    H    0.74542014    0.84151996    0.66583029    0.10430000
opls_146-114    H    0.68563984    0.89484012    0.57763015    0.10750000
opls_144-115    H    0.77629994    0.77034000    0.58783957    0.09880000
opls_146-116    H    0.82396010    0.27799004    0.67025091    0.10970000
opls_146-117    H    0.88294015    0.33220011    0.59099081    0.10590000
opls_146-118    H    0.78209997    0.41200000    0.10829053    0.10580000
opls_146-119    H    0.72250992    0.35672015    0.19147980    0.11020000
opls_601-120    H    0.92833009    0.36694001    0.16032056    0.10340000
opls_602-121    H    0.99056011    0.41826002    0.24349007    0.22480000
opls_599-122    H    0.82747984    0.46093986    0.46035019    0.10990000
opls_599-123    H    0.45701013    0.15698000    0.46603033    0.10700000
opls_601-124    H    0.35384001    0.06526010    0.16138990    0.10330000
opls_602-125    H    0.41023008    0.00864996    0.24328015    0.22480000
opls_146-126    H    0.40351001    0.19944993    0.13920034    0.10750000
opls_146-127    H    0.34345995    0.25347001    0.23905957    0.10330000
opls_146-128    H    0.25457986    0.15848004    0.66583029    0.10430000
opls_146-129    H    0.31436016    0.10515988    0.57763015    0.10750000
opls_144-130    H    0.22370006    0.22966000    0.58783957    0.09890000
opls_146-131    H    0.17603990    0.72200996    0.67025091    0.10980000
opls_146-132    H    0.11705985    0.66779989    0.59099081    0.10590000
opls_146-133    H    0.21790003    0.58800000    0.10829053    0.10590000
opls_146-134    H    0.27749008    0.64327985    0.19147980    0.11030000
opls_601-135    H    0.07166991    0.63305999    0.16032056    0.10330000
opls_602-136    H    0.00943989    0.58173998    0.24349007    0.22480000
opls_599-137    H    0.17252016    0.53906014    0.46035019    0.10990000
opls_599-138    H    0.45701013    0.84302000    0.53396967    0.10700000
opls_601-139    H    0.35384001    0.93473990    0.83861010    0.10330000
opls_602-140    H    0.41023008    0.99135004    0.75671985    0.22490000
opls_146-141    H    0.40351001    0.80055007    0.86079966    0.10750000
opls_146-142    H    0.34345995    0.74652999    0.76094043    0.10330000
opls_146-143    H    0.25457986    0.84151996    0.33416971    0.10430000
opls_146-144    H    0.31436016    0.89484012    0.42236985    0.10750000
opls_144-145    H    0.22370006    0.77034000    0.41216043    0.09880000
opls_146-146    H    0.17603990    0.27799004    0.32974909    0.10980000
opls_146-147    H    0.11705985    0.33220011    0.40900919    0.10590000
opls_146-148    H    0.21790003    0.41200000    0.89170947    0.10580000
opls_146-149    H    0.27749008    0.35672015    0.80852020    0.11020000
opls_601-150    H    0.07166991    0.36694001    0.83967944    0.10340000
opls_602-151    H    0.00943989    0.41826002    0.75650993    0.22480000
opls_599-152    H    0.17252016    0.46093986    0.53964981    0.10990000
opls_599-153    H    0.54298987    0.15698000    0.53396967    0.10700000
opls_601-154    H    0.64615999    0.06526010    0.83861010    0.10330000
opls_602-155    H    0.58976992    0.00864996    0.75671985    0.22490000
opls_146-156    H    0.59648999    0.19944993    0.86079966    0.10750000
opls_146-157    H    0.65654005    0.25347001    0.76094043    0.10330000
opls_146-158    H    0.74542014    0.15848004    0.33416971    0.10430000
opls_146-159    H    0.68563984    0.10515988    0.42236985    0.10750000
opls_144-160    H    0.77629994    0.22966000    0.41216043    0.09880000
opls_146-161    H    0.82396010    0.72200996    0.32974909    0.10970000
opls_146-162    H    0.88294015    0.66779989    0.40900919    0.10600000
opls_146-163    H    0.78209997    0.58800000    0.89170947    0.10580000
opls_146-164    H    0.72250992    0.64327985    0.80852020    0.11030000
opls_601-165    H    0.92833009    0.63305999    0.83967944    0.10330000
opls_602-166    H    0.99056011    0.58173998    0.75650993    0.22480000
opls_599-167    H    0.82747984    0.53906014    0.53964981    0.10990000
