#======================================================================
# Crystal Data Generated By AuToFF
#----------------------------------------------------------------------

data_AuToFF_phase_1

_cell_length_a                         21.4161
_cell_length_b                         21.4161
_cell_length_c                         19.3936
_cell_angle_alpha                      90.00
_cell_angle_beta                       90.00
_cell_angle_gamma                      90.00
_symmetry_space_group_name_H-M_alt     'P 1'
_symmetry_space_group_IT_number        1

loop_
_space_group_symop_operation_xyz
   'x, y, z'

loop_
   _atom_site_label
   _atom_site_type_symbol
   _atom_site_fract_x
   _atom_site_fract_y
   _atom_site_fract_z
   _atom_site_charge
opls_141-0    C    0.52975005    0.15193990    0.17812990    0.00530000
opls_142-1    C    0.47020980    0.12624988    0.18312020    -0.21700000
opls_137-2    C    0.46138980    0.07820005    0.20627991    -0.07960000
opls_141-3    C    0.51136014    0.05558015    0.22593020    0.00500000
opls_137-4    C    0.57152983    0.07993986    0.21950025    -0.06090000
opls_142-5    C    0.58029006    0.12800977    0.19629981    -0.21280000
opls_142-6    C    0.54032013    0.20276007    0.15378011    0.00930000
opls_141-7    C    0.02975005    0.65193990    0.67812990    0.00530000
opls_142-8    C    0.97020980    0.62624988    0.68312020    -0.21700000
opls_137-9    C    0.96138980    0.57820005    0.70627991    -0.07960000
opls_141-10    C    0.01136014    0.55558015    0.72593020    0.00500000
opls_137-11    C    0.07152983    0.57993986    0.71950025    -0.06090000
opls_142-12    C    0.08029006    0.62800977    0.69629981    -0.21290000
opls_142-13    C    0.04032013    0.70276007    0.65378011    0.00930000
opls_141-14    C    0.97024995    0.34806010    0.67812990    0.00530000
opls_142-15    C    0.02979020    0.37375012    0.68312020    -0.21690000
opls_137-16    C    0.03861020    0.42179995    0.70627991    -0.07960000
opls_141-17    C    0.98863986    0.44441985    0.72593020    0.00500000
opls_137-18    C    0.92847017    0.42006014    0.71950025    -0.06090000
opls_142-19    C    0.91970994    0.37199023    0.69629981    -0.21280000
opls_142-20    C    0.95967987    0.29723993    0.65378011    0.00930000
opls_141-21    C    0.47024995    0.84806010    0.17812990    0.00530000
opls_142-22    C    0.52979020    0.87375012    0.18312020    -0.21700000
opls_137-23    C    0.53861020    0.92179995    0.20627991    -0.07960000
opls_141-24    C    0.48863986    0.94441985    0.22593020    0.00500000
opls_137-25    C    0.42847017    0.92006014    0.21950025    -0.06090000
opls_142-26    C    0.41970994    0.87199023    0.19629981    -0.21290000
opls_142-27    C    0.45967987    0.79723993    0.15378011    0.00930000
opls_141-28    C    0.84806010    0.02975005    0.42812990    0.00530000
opls_142-29    C    0.87375012    0.97020980    0.43312020    -0.21700000
opls_137-30    C    0.92179995    0.96138980    0.45627991    -0.07960000
opls_141-31    C    0.94441985    0.01136014    0.47593020    0.00500000
opls_137-32    C    0.92006014    0.07152983    0.46950025    -0.06090000
opls_142-33    C    0.87199023    0.08029006    0.44629981    -0.21290000
opls_142-34    C    0.79723993    0.04032013    0.40378011    0.00930000
opls_141-35    C    0.34806010    0.52975005    0.92812990    0.00530000
opls_142-36    C    0.37375012    0.47020980    0.93312020    -0.21700000
opls_137-37    C    0.42179995    0.46138980    0.95627991    -0.07960000
opls_141-38    C    0.44441985    0.51136014    0.97593020    0.00500000
opls_137-39    C    0.42006014    0.57152983    0.96950025    -0.06090000
opls_142-40    C    0.37199023    0.58029006    0.94629981    -0.21290000
opls_142-41    C    0.29723993    0.54032013    0.90378011    0.00930000
opls_141-42    C    0.65193990    0.47024995    0.92812990    0.00530000
opls_142-43    C    0.62624988    0.52979020    0.93312020    -0.21700000
opls_137-44    C    0.57820005    0.53861020    0.95627991    -0.07960000
opls_141-45    C    0.55558015    0.48863986    0.97593020    0.00500000
opls_137-46    C    0.57993986    0.42847017    0.96950025    -0.06090000
opls_142-47    C    0.62800977    0.41970994    0.94629981    -0.21290000
opls_142-48    C    0.70276007    0.45967987    0.90378011    0.00930000
opls_141-49    C    0.15193990    0.97024995    0.42812990    0.00530000
opls_142-50    C    0.12624988    0.02979020    0.43312020    -0.21700000
opls_137-51    C    0.07820005    0.03861020    0.45627991    -0.07960000
opls_141-52    C    0.05558015    0.98863986    0.47593020    0.00500000
opls_137-53    C    0.07993986    0.92847017    0.46950025    -0.06090000
opls_142-54    C    0.12800977    0.91970994    0.44629981    -0.21290000
opls_142-55    C    0.20276007    0.95967987    0.40378011    0.00930000
opls_141-56    C    0.47024995    0.34806010    0.07187010    0.00530000
opls_142-57    C    0.52979020    0.37375012    0.06687980    -0.21700000
opls_137-58    C    0.53861020    0.42179995    0.04372009    -0.07960000
opls_141-59    C    0.48863986    0.44441985    0.02406980    0.00500000
opls_137-60    C    0.42847017    0.42006014    0.03049975    -0.06090000
opls_142-61    C    0.41970994    0.37199023    0.05370019    -0.21290000
opls_142-62    C    0.45967987    0.29723993    0.09621989    0.00930000
opls_141-63    C    0.97024995    0.84806010    0.57187010    0.00530000
opls_142-64    C    0.02979020    0.87375012    0.56687980    -0.21700000
opls_137-65    C    0.03861020    0.92179995    0.54372009    -0.07960000
opls_141-66    C    0.98863986    0.94441985    0.52406980    0.00500000
opls_137-67    C    0.92847017    0.92006014    0.53049975    -0.06090000
opls_142-68    C    0.91970994    0.87199023    0.55370019    -0.21290000
opls_142-69    C    0.95967987    0.79723993    0.59621989    0.00930000
opls_141-70    C    0.02975005    0.15193990    0.57187010    0.00530000
opls_142-71    C    0.97020980    0.12624988    0.56687980    -0.21700000
opls_137-72    C    0.96138980    0.07820005    0.54372009    -0.07960000
opls_141-73    C    0.01136014    0.05558015    0.52406980    0.00500000
opls_137-74    C    0.07152983    0.07993986    0.53049975    -0.06090000
opls_142-75    C    0.08029006    0.12800977    0.55370019    -0.21290000
opls_142-76    C    0.04032013    0.20276007    0.59621989    0.00930000
opls_141-77    C    0.52975005    0.65193990    0.07187010    0.00530000
opls_142-78    C    0.47020980    0.62624988    0.06687980    -0.21700000
opls_137-79    C    0.46138980    0.57820005    0.04372009    -0.07960000
opls_141-80    C    0.51136014    0.55558015    0.02406980    0.00500000
opls_137-81    C    0.57152983    0.57993986    0.03049975    -0.06090000
opls_142-82    C    0.58029006    0.62800977    0.05370019    -0.21290000
opls_142-83    C    0.54032013    0.70276007    0.09621989    0.00930000
opls_141-84    C    0.15193990    0.47024995    0.82187010    0.00530000
opls_142-85    C    0.12624988    0.52979020    0.81687980    -0.21690000
opls_137-86    C    0.07820005    0.53861020    0.79372009    -0.07960000
opls_141-87    C    0.05558015    0.48863986    0.77406980    0.00500000
opls_137-88    C    0.07993986    0.42847017    0.78049975    -0.06090000
opls_142-89    C    0.12800977    0.41970994    0.80370019    -0.21290000
opls_142-90    C    0.20276007    0.45967987    0.84621989    0.00930000
opls_141-91    C    0.65193990    0.97024995    0.32187010    0.00530000
opls_142-92    C    0.62624988    0.02979020    0.31687980    -0.21700000
opls_137-93    C    0.57820005    0.03861020    0.29372009    -0.07950000
opls_141-94    C    0.55558015    0.98863986    0.27406980    0.00500000
opls_137-95    C    0.57993986    0.92847017    0.28049975    -0.06090000
opls_142-96    C    0.62800977    0.91970994    0.30370019    -0.21280000
opls_142-97    C    0.70276007    0.95967987    0.34621989    0.00930000
opls_141-98    C    0.34806010    0.02975005    0.32187010    0.00530000
opls_142-99    C    0.37375012    0.97020980    0.31687980    -0.21700000
opls_137-100    C    0.42179995    0.96138980    0.29372009    -0.07960000
opls_141-101    C    0.44441985    0.01136014    0.27406980    0.00500000
opls_137-102    C    0.42006014    0.07152983    0.28049975    -0.06080000
opls_142-103    C    0.37199023    0.08029006    0.30370019    -0.21290000
opls_142-104    C    0.29723993    0.04032013    0.34621989    0.00930000
opls_141-105    C    0.84806010    0.52975005    0.82187010    0.00530000
opls_142-106    C    0.87375012    0.47020980    0.81687980    -0.21700000
opls_137-107    C    0.92179995    0.46138980    0.79372009    -0.07960000
opls_141-108    C    0.94441985    0.51136014    0.77406980    0.00500000
opls_137-109    C    0.92006014    0.57152983    0.78049975    -0.06090000
opls_142-110    C    0.87199023    0.58029006    0.80370019    -0.21290000
opls_142-111    C    0.79723993    0.54032013    0.84621989    0.00930000
opls_139-112    C    0.50000000    0.00000000    0.25000000    -0.02740000
opls_139-113    C    0.00000000    0.50000000    0.75000000    -0.02740000
opls_139-114    C    0.00000000    0.00000000    0.50000000    -0.02740000
opls_139-115    C    0.50000000    0.50000000    0.00000000    -0.02740000
opls_144-116    H    0.43047007    0.14294012    0.16893975    0.17120000
opls_140-117    H    0.41507978    0.05854988    0.20904989    0.08290000
opls_140-118    H    0.61254010    0.06125018    0.23167024    0.17150000
opls_144-119    H    0.62694982    0.14604013    0.19225002    0.06740000
opls_144-120    H    0.58709989    0.22103978    0.15037023    0.06960000
opls_144-121    H    0.93047007    0.64294012    0.66893975    0.17140000
opls_140-122    H    0.91507978    0.55854988    0.70904989    0.08290000
opls_140-123    H    0.11254010    0.56125018    0.73167024    0.17140000
opls_144-124    H    0.12694982    0.64604013    0.69225002    0.06750000
opls_144-125    H    0.08709989    0.72103978    0.65037023    0.06960000
opls_144-126    H    0.06952993    0.35705988    0.66893975    0.17120000
opls_140-127    H    0.08492022    0.44145012    0.70904989    0.08290000
opls_140-128    H    0.88745990    0.43874982    0.73167024    0.17140000
opls_144-129    H    0.87305018    0.35395987    0.69225002    0.06740000
opls_144-130    H    0.91290011    0.27896022    0.65037023    0.06970000
opls_144-131    H    0.56952993    0.85705988    0.16893975    0.17120000
opls_140-132    H    0.58492022    0.94145012    0.20904989    0.08290000
opls_140-133    H    0.38745990    0.93874982    0.23167024    0.17140000
opls_144-134    H    0.37305018    0.85395987    0.19225002    0.06740000
opls_144-135    H    0.41290011    0.77896022    0.15037023    0.06960000
opls_144-136    H    0.85705988    0.93047007    0.41893975    0.17120000
opls_140-137    H    0.94145012    0.91507978    0.45904989    0.08300000
opls_140-138    H    0.93874982    0.11254010    0.48167024    0.17140000
opls_144-139    H    0.85395987    0.12694982    0.44225002    0.06740000
opls_144-140    H    0.77896022    0.08709989    0.40037023    0.06960000
opls_144-141    H    0.35705988    0.43047007    0.91893975    0.17120000
opls_140-142    H    0.44145012    0.41507978    0.95904989    0.08290000
opls_140-143    H    0.43874982    0.61254010    0.98167024    0.17140000
opls_144-144    H    0.35395987    0.62694982    0.94225002    0.06740000
opls_144-145    H    0.27896022    0.58709989    0.90037023    0.06960000
opls_144-146    H    0.64294012    0.56952993    0.91893975    0.17120000
opls_140-147    H    0.55854988    0.58492022    0.95904989    0.08290000
opls_140-148    H    0.56125018    0.38745990    0.98167024    0.17150000
opls_144-149    H    0.64604013    0.37305018    0.94225002    0.06740000
opls_144-150    H    0.72103978    0.41290011    0.90037023    0.06960000
opls_144-151    H    0.14294012    0.06952993    0.41893975    0.17120000
opls_140-152    H    0.05854988    0.08492022    0.45904989    0.08290000
opls_140-153    H    0.06125018    0.88745990    0.48167024    0.17140000
opls_144-154    H    0.14604013    0.87305018    0.44225002    0.06740000
opls_144-155    H    0.22103978    0.91290011    0.40037023    0.06960000
opls_144-156    H    0.56952993    0.35705988    0.08106025    0.17120000
opls_140-157    H    0.58492022    0.44145012    0.04095011    0.08290000
opls_140-158    H    0.38745990    0.43874982    0.01832976    0.17140000
opls_144-159    H    0.37305018    0.35395987    0.05774998    0.06760000
opls_144-160    H    0.41290011    0.27896022    0.09962977    0.06960000
opls_144-161    H    0.06952993    0.85705988    0.58106025    0.17130000
opls_140-162    H    0.08492022    0.94145012    0.54095011    0.08290000
opls_140-163    H    0.88745990    0.93874982    0.51832976    0.17150000
opls_144-164    H    0.87305018    0.85395987    0.55774998    0.06740000
opls_144-165    H    0.91290011    0.77896022    0.59962977    0.06960000
opls_144-166    H    0.93047007    0.14294012    0.58106025    0.17120000
opls_140-167    H    0.91507978    0.05854988    0.54095011    0.08290000
opls_140-168    H    0.11254010    0.06125018    0.51832976    0.17150000
opls_144-169    H    0.12694982    0.14604013    0.55774998    0.06740000
opls_144-170    H    0.08709989    0.22103978    0.59962977    0.06960000
opls_144-171    H    0.43047007    0.64294012    0.08106025    0.17120000
opls_140-172    H    0.41507978    0.55854988    0.04095011    0.08290000
opls_140-173    H    0.61254010    0.56125018    0.01832976    0.17140000
opls_144-174    H    0.62694982    0.64604013    0.05774998    0.06750000
opls_144-175    H    0.58709989    0.72103978    0.09962977    0.06960000
opls_144-176    H    0.14294012    0.56952993    0.83106025    0.17120000
opls_140-177    H    0.05854988    0.58492022    0.79095011    0.08290000
opls_140-178    H    0.06125018    0.38745990    0.76832976    0.17150000
opls_144-179    H    0.14604013    0.37305018    0.80774998    0.06740000
opls_144-180    H    0.22103978    0.41290011    0.84962977    0.06960000
opls_144-181    H    0.64294012    0.06952993    0.33106025    0.17120000
opls_140-182    H    0.55854988    0.08492022    0.29095011    0.08290000
opls_140-183    H    0.56125018    0.88745990    0.26832976    0.17150000
opls_144-184    H    0.64604013    0.87305018    0.30774998    0.06740000
opls_144-185    H    0.72103978    0.91290011    0.34962977    0.06960000
opls_144-186    H    0.35705988    0.93047007    0.33106025    0.17120000
opls_140-187    H    0.44145012    0.91507978    0.29095011    0.08290000
opls_140-188    H    0.43874982    0.11254010    0.26832976    0.17140000
opls_144-189    H    0.35395987    0.12694982    0.30774998    0.06740000
opls_144-190    H    0.27896022    0.08709989    0.34962977    0.06970000
opls_144-191    H    0.85705988    0.43047007    0.83106025    0.17120000
opls_140-192    H    0.94145012    0.41507978    0.79095011    0.08300000
opls_140-193    H    0.93874982    0.61254010    0.76832976    0.17140000
opls_144-194    H    0.85395987    0.62694982    0.80774998    0.06740000
opls_144-195    H    0.77896022    0.58709989    0.84962977    0.06960000
opls_750-196    N    0.49469978    0.22590014    0.13648987    -0.00500000
opls_750-197    N    0.99469978    0.72590014    0.63648987    -0.00500000
opls_750-198    N    0.00530022    0.27409986    0.63648987    -0.00500000
opls_750-199    N    0.50530022    0.77409986    0.13648987    -0.00500000
opls_750-200    N    0.77409986    0.99469978    0.38648987    -0.00500000
opls_750-201    N    0.27409986    0.49469978    0.88648987    -0.00500000
opls_750-202    N    0.72590014    0.50530022    0.88648987    -0.00500000
opls_750-203    N    0.22590014    0.00530022    0.38648987    -0.00500000
opls_750-204    N    0.50530022    0.27409986    0.11351013    -0.00500000
opls_750-205    N    0.00530022    0.77409986    0.61351013    -0.00500000
opls_750-206    N    0.99469978    0.22590014    0.61351013    -0.00500000
opls_750-207    N    0.49469978    0.72590014    0.11351013    -0.00500000
opls_750-208    N    0.22590014    0.50530022    0.86351013    -0.00500000
opls_750-209    N    0.72590014    0.00530022    0.36351013    -0.00500000
opls_750-210    N    0.27409986    0.99469978    0.36351013    -0.00500000
opls_750-211    N    0.77409986    0.49469978    0.86351013    -0.00500000
