#======================================================================
# Crystal Data Generated By AuToFF
#----------------------------------------------------------------------

data_AuToFF_phase_1

_cell_length_a                         29.6012
_cell_length_b                         29.6012
_cell_length_c                         8.0200
_cell_angle_alpha                      90.00
_cell_angle_beta                       90.00
_cell_angle_gamma                      120.00
_symmetry_space_group_name_H-M_alt     'P 1'
_symmetry_space_group_IT_number        1

loop_
_space_group_symop_operation_xyz
   'x, y, z'

loop_
   _atom_site_label
   _atom_site_type_symbol
   _atom_site_fract_x
   _atom_site_fract_y
   _atom_site_fract_z
   _atom_site_charge
opls_526-0    H    0.01349008    0.17973005    0.52101995    0.09370000
opls_526-1    H    0.23944997    0.17713988    0.52116958    0.09370000
opls_526-2    H    0.15292988    0.00711984    0.51018953    0.07640000
opls_526-3    H    0.92669994    0.00961990    0.51741022    0.08990000
opls_525-4    H    0.87984984    0.86041991    0.52363965    0.07000000
opls_525-5    H    0.04787996    0.85822022    0.53276060    0.10470000
opls_525-6    H    0.11599007    0.32672021    0.54171945    0.06570000
opls_525-7    H    0.28542992    0.32738999    0.54553990    0.10790000
opls_525-8    H    0.81539006    0.79645989    0.55265960    0.07000000
opls_525-9    H    0.81510982    0.62772987    0.50219950    0.06850000
opls_525-10    H    0.04625020    0.79374022    0.58026060    0.12450000
opls_525-11    H    0.87651015    0.62668015    0.52200998    0.07410000
opls_525-12    H    0.11580004    0.38985988    0.53450998    0.07000000
opls_525-13    H    0.28293994    0.55798020    0.61614963    0.10480000
opls_525-14    H    0.34887990    0.39169991    0.53087032    0.07750000
opls_525-15    H    0.34750987    0.55897999    0.60114963    0.10710000
opls_526-16    H    0.49810998    0.43825001    0.50843017    0.06620000
opls_526-17    H    0.66806987    0.52503005    0.48626060    0.14440000
opls_526-18    H    0.66629998    0.74972021    0.55366958    0.09370000
opls_526-19    H    0.49661994    0.66447009    0.56220948    0.07000000
opls_526-20    H    0.01085003    0.43530018    0.51334040    0.06390000
opls_526-21    H    0.92691002    0.52127001    0.51092020    0.07960000
opls_526-22    H    0.14611011    0.74588021    0.57287032    0.12450000
opls_526-23    H    0.23099991    0.66077013    0.58473940    0.07360000
opls_140-24    H    0.22873015    0.01451002    0.61452993    0.13550000
opls_140-25    H    0.22774008    0.01608987    0.39265960    0.13910000
opls_140-26    H    0.28739993    0.03989992    0.50051995    0.13290000
opls_140-27    H    0.29624007    0.16397995    0.35330050    0.13060000
opls_140-28    H    0.32392011    0.12320000    0.34200000    0.13290000
opls_140-29    H    0.26417009    0.10489991    0.23864963    0.13180000
opls_140-30    H    0.32567006    0.12168998    0.66992020    0.13470000
opls_140-31    H    0.29749989    0.16212002    0.67431047    0.13550000
opls_140-32    H    0.26707009    0.10179014    0.78213965    0.12850000
opls_140-33    H    0.85997024    0.02072018    0.40792020    0.13270000
opls_140-34    H    0.86171014    0.01994001    0.62987032    0.13060000
opls_140-35    H    0.82736006    0.04619005    0.52590025    0.12990000
opls_140-36    H    0.94345980    0.16802982    0.67933042    0.13220000
opls_140-37    H    0.87489990    0.12770003    0.69059975    0.13910000
opls_140-38    H    0.91611009    0.10864005    0.79183042    0.13200000
opls_140-39    H    0.87403000    0.12831012    0.35678055    0.13010000
opls_140-40    H    0.94278017    0.16764013    0.35950000    0.13560000
opls_140-41    H    0.91303989    0.10782984    0.24847007    0.13550000
opls_140-42    H    0.91152006    0.45789005    0.22322943    0.13240000
opls_140-43    H    0.94551012    0.42238991    0.21880050    0.13260000
opls_140-44    H    0.87599002    0.38840018    0.21930050    0.13240000
opls_140-45    H    0.91832996    0.36975993    0.64302993    0.13460000
opls_140-46    H    0.87208998    0.33636001    0.48412968    0.13180000
opls_140-47    H    0.93919017    0.36497007    0.44065960    0.13060000
opls_140-48    H    0.82648013    0.38178003    0.48867955    0.13280000
opls_140-49    H    0.86056003    0.42589015    0.65151995    0.13490000
opls_140-50    H    0.85484007    0.44945015    0.45476060    0.13060000
opls_140-51    H    0.51257994    0.37227013    0.60845012    0.13280000
opls_140-52    H    0.50521003    0.37246010    0.38814963    0.13390000
opls_140-53    H    0.53458995    0.33905004    0.47817955    0.13140000
opls_140-54    H    0.64861024    0.45738021    0.28621945    0.13170000
opls_140-55    H    0.61146004    0.38834986    0.28407980    0.13010000
opls_140-56    H    0.58476004    0.42564010    0.20249002    0.13440000
opls_140-57    H    0.61863020    0.38368014    0.61988030    0.13290000
opls_140-58    H    0.66287992    0.45095003    0.59208978    0.13270000
opls_140-59    H    0.61119994    0.43074008    0.73702993    0.13040000
opls_140-60    H    0.28465998    0.72874998    0.40157980    0.13060000
opls_140-61    H    0.25247995    0.75698010    0.29405985    0.13270000
opls_140-62    H    0.31411000    0.79743004    0.38852993    0.13560000
opls_140-63    H    0.22295007    0.81398996    0.67494015    0.13270000
opls_140-64    H    0.28024015    0.84647006    0.55345012    0.13550000
opls_140-65    H    0.21930014    0.81035007    0.45322943    0.13550000
opls_140-66    H    0.32017009    0.80383017    0.71699002    0.13290000
opls_140-67    H    0.26283991    0.76592008    0.83639027    0.13170000
opls_140-68    H    0.29193012    0.73521019    0.72520948    0.13180000
opls_140-69    H    0.59423998    0.77994991    0.82211970    0.13060000
opls_140-70    H    0.65365998    0.80841992    0.70879052    0.13370000
opls_140-71    H    0.61461012    0.83813002    0.70646010    0.13470000
opls_140-72    H    0.59147009    0.77221021    0.27918953    0.13180000
opls_140-73    H    0.61185979    0.83331988    0.37645012    0.13390000
opls_140-74    H    0.65200011    0.80490018    0.38608978    0.13380000
opls_140-75    H    0.53144014    0.80046998    0.54445012    0.13550000
opls_140-76    H    0.50478993    0.73953000    0.44331047    0.13550000
opls_140-77    H    0.50596992    0.74308992    0.66477057    0.12880000
opls_526-78    H    0.89823998    0.04468003    0.98717955    0.09850000
opls_526-79    H    0.12456018    0.04238008    0.97892020    0.07640000
opls_526-80    H    0.03792022    0.87226018    0.98123940    0.08220000
opls_526-81    H    0.81185014    0.87464010    0.97960973    0.09370000
opls_525-82    H    0.76608019    0.72462014    0.96615960    0.11280000
opls_525-83    H    0.93550995    0.72525013    0.97264963    0.07050000
opls_525-84    H    0.00344015    0.19377002    0.97117955    0.11860000
opls_525-85    H    0.17119998    0.19100002    0.97863965    0.06570000
opls_525-86    H    0.70303006    0.66083020    0.98962968    0.07000000
opls_525-87    H    0.70351015    0.49316004    0.91746010    0.11860000
opls_525-88    H    0.93580005    0.66222008    0.97642020    0.07740000
opls_525-89    H    0.76845986    0.49405997    0.89825062    0.08370000
opls_525-90    H    0.00558981    0.25853985    0.92133042    0.12450000
opls_525-91    H    0.17529013    0.42509008    0.98963965    0.06570000
opls_525-92    H    0.23541005    0.25445995    0.95271945    0.07740000
opls_525-93    H    0.23673003    0.42337019    0.01770948    0.06430000
opls_526-94    H    0.38694014    0.30168997    0.94836035    0.10010000
opls_526-95    H    0.55662007    0.38944990    0.93080050    0.10710000
opls_526-96    H    0.55033996    0.61401992    0.00791022    0.10010000
opls_526-97    H    0.38049983    0.52286000    0.02483042    0.10470000
opls_526-98    H    0.90561010    0.30650012    0.92484040    0.14440000
opls_526-99    H    0.82122015    0.39213018    0.91494015    0.08130000
opls_526-100    H    0.04138999    0.61722993    0.98487032    0.08260000
opls_526-101    H    0.12518025    0.53113021    0.98804988    0.08110000
opls_140-102    H    0.13818985    0.94439991    0.25109975    0.13550000
opls_140-103    H    0.10875991    0.88452994    0.14043017    0.13060000
opls_140-104    H    0.17747990    0.92409010    0.14363965    0.12910000
opls_140-105    H    0.13545009    0.94326008    0.70773940    0.12970000
opls_140-106    H    0.17656009    0.92421999    0.80972943    0.13910000
opls_140-107    H    0.10799002    0.88392999    0.82067955    0.13270000
opls_140-108    H    0.22403983    0.00596987    0.97400998    0.12990000
opls_140-109    H    0.18969003    0.03204008    0.86901995    0.13170000
opls_140-110    H    0.19127020    0.03147017    0.09100998    0.13550000
opls_140-111    H    0.78391993    0.94993991    0.71701995    0.12850000
opls_140-112    H    0.75366006    0.88962017    0.82491022    0.13550000
opls_140-113    H    0.72539010    0.92996011    0.82978055    0.13010000
opls_140-114    H    0.78727003    0.94689997    0.26047007    0.13280000
opls_140-115    H    0.72743992    0.92867009    0.15780050    0.13290000
opls_140-116    H    0.75499990    0.88780003    0.14597007    0.13370000
opls_140-117    H    0.76380003    0.01186017    0.99911970    0.13290000
opls_140-118    H    0.82360005    0.03572015    0.10621945    0.13910000
opls_140-119    H    0.82232979    0.03720989    0.88437032    0.13370000
opls_140-120    H    0.79996000    0.27222991    0.66719950    0.13060000
opls_140-121    H    0.83277993    0.24597012    0.78166958    0.13550000
opls_140-122    H    0.76406018    0.21596005    0.79298005    0.13550000
opls_140-123    H    0.81191010    0.28851014    0.20810973    0.13220000
opls_140-124    H    0.76987003    0.22600007    0.12135037    0.13270000
opls_140-125    H    0.83828005    0.25412994    0.10343017    0.13220000
opls_140-126    H    0.72035991    0.25692997    0.94813965    0.13290000
opls_140-127    H    0.75607021    0.31879016    0.04338030    0.13220000
opls_140-128    H    0.75222019    0.31325016    0.82194015    0.13220000
opls_140-129    H    0.47153992    0.28003982    0.20516958    0.13550000
opls_140-130    H    0.40810017    0.24748014    0.11679052    0.13180000
opls_140-131    H    0.44858983    0.21950983    0.10094015    0.13910000
opls_140-132    H    0.45215988    0.27403991    0.66516958    0.13130000
opls_140-133    H    0.43776993    0.21610984    0.77360973    0.13470000
opls_140-134    H    0.39665991    0.24306983    0.79660973    0.13180000
opls_140-135    H    0.52529004    0.25589000    0.90502993    0.13910000
opls_140-136    H    0.54559015    0.31453003    0.79446010    0.13550000
opls_140-137    H    0.55280013    0.31545999    0.01516958    0.13300000
opls_140-138    H    0.13350013    0.68244017    0.85539027    0.13460000
opls_140-139    H    0.11343005    0.68787992    0.05829052    0.13370000
opls_140-140    H    0.18038016    0.71606010    0.01240025    0.13190000
opls_140-141    H    0.14031015    0.59439002    0.27537032    0.13200000
opls_140-142    H    0.17508989    0.66387989    0.28049002    0.12830000
opls_140-143    H    0.10559012    0.62915992    0.27868953    0.13060000
opls_140-144    H    0.22577992    0.67028003    0.01729052    0.13550000
opls_140-145    H    0.19664984    0.60215000    0.04145012    0.13280000
opls_140-146    H    0.19295020    0.62871015    0.84790025    0.13530000
opls_140-147    H    0.45708000    0.61470998    0.31565960    0.13280000
opls_140-148    H    0.52195020    0.65477022    0.23945012    0.13060000
opls_140-149    H    0.47892010    0.68005012    0.25292020    0.13470000
opls_140-150    H    0.47975016    0.65808010    0.79634040    0.13310000
opls_140-151    H    0.49801015    0.70589018    0.95419950    0.13470000
opls_140-152    H    0.53656012    0.67662009    0.91846010    0.13200000
opls_140-153    H    0.40516013    0.65248003    0.04144015    0.13550000
opls_140-154    H    0.38827008    0.59900005    0.90708978    0.13390000
opls_140-155    H    0.37942997    0.58951005    0.12678055    0.13270000
opls_700-156    C    0.20349989    0.09205984    0.51479052    0.06550000
opls_523-157    C    0.20285001    0.13931015    0.51946010    -0.12460000
opls_700-158    C    0.15599998    0.14059002    0.52095012    0.00230000
opls_700-159    C    0.10742011    0.09307017    0.51890025    -0.00090000
opls_700-160    C    0.10753984    0.04513994    0.51669950    0.00230000
opls_523-161    C    0.15522982    0.04537984    0.51372943    -0.14450000
opls_521-162    C    0.15679007    0.19045000    0.52460973    0.11210000
opls_700-163    C    0.05868993    0.09348015    0.51880050    -0.00200000
opls_700-164    C    0.05863015    0.14142012    0.51980050    -0.00200000
opls_523-165    C    0.01118003    0.14139984    0.51954988    -0.14570000
opls_700-166    C    0.96277008    0.09479005    0.51861970    0.06900000
opls_523-167    C    0.96312980    0.04748982    0.51762968    -0.14450000
opls_700-168    C    0.01006008    0.04619005    0.51775062    0.00030000
opls_521-169    C    0.05790006    0.99584013    0.51850998    0.11050000
opls_521-170    C    0.00929984    0.99639990    0.51882045    0.12720000
opls_521-171    C    0.96370984    0.90651985    0.52498005    0.16970000
opls_521-172    C    0.01189000    0.90594019    0.52621945    0.17400000
opls_522-173    C    0.91592016    0.85840005    0.52760973    -0.20010000
opls_522-174    C    0.01023002    0.85720990    0.53283042    -0.20020000
opls_700-175    C    0.96303999    0.80994009    0.53844015    0.03500000
opls_521-176    C    0.10808010    0.19068015    0.52323940    0.11740000
opls_521-177    C    0.15327020    0.28039012    0.53250998    0.17130000
opls_521-178    C    0.20170998    0.28036008    0.53400000    0.17320000
opls_522-179    C    0.15402003    0.32860003    0.54022943    -0.20030000
opls_522-180    C    0.24904004    0.32883018    0.54232045    -0.20020000
opls_700-181    C    0.24961982    0.37633990    0.54949002    0.03520000
opls_700-182    C    0.91452997    0.81052014    0.53404988    0.02930000
opls_700-183    C    0.86452018    0.76107015    0.53308978    0.03010000
opls_522-184    C    0.81690990    0.76025994    0.54019950    -0.20010000
opls_700-185    C    0.86427996    0.71228017    0.52327057    0.03090000
opls_700-186    C    0.96232010    0.75987999    0.54589027    0.03010000
opls_521-187    C    0.76853003    0.71275023    0.53472943    0.16970000
opls_522-188    C    0.81684011    0.66557014    0.51216958    -0.20020000
opls_700-189    C    0.91344020    0.71156007    0.53175062    0.03000000
opls_522-190    C    0.00825989    0.75794985    0.56521945    -0.20020000
opls_521-191    C    0.76853996    0.66453017    0.51781047    0.16840000
opls_522-192    C    0.91304007    0.66415022    0.53222943    -0.20050000
opls_521-193    C    0.00810994    0.70989987    0.56453990    0.16970000
opls_521-194    C    0.95960987    0.66195989    0.54645012    0.17290000
opls_700-195    C    0.20073020    0.37617021    0.54900998    0.03000000
opls_700-196    C    0.20025020    0.42550006    0.56050000    0.02930000
opls_522-197    C    0.15326987    0.42600990    0.55216958    -0.20020000
opls_700-198    C    0.24870011    0.47402009    0.58122943    0.03090000
opls_700-199    C    0.29915001    0.42617998    0.55828055    0.03500000
opls_521-200    C    0.15156985    0.47295984    0.56441022    0.17430000
opls_522-201    C    0.24710001    0.52023004    0.59812968    -0.20040000
opls_700-202    C    0.29872009    0.47449990    0.57780050    0.03020000
opls_522-203    C    0.34699995    0.42759989    0.54700998    -0.20010000
opls_521-204    C    0.19956012    0.52097003    0.58891022    0.17380000
opls_522-205    C    0.34625002    0.52142995    0.58648005    -0.20100000
opls_521-206    C    0.39527999    0.47517007    0.55359975    0.16970000
opls_521-207    C    0.39493978    0.52314983    0.57348005    0.17040000
opls_521-208    C    0.48523015    0.52064002    0.54440025    0.11150000
opls_521-209    C    0.67869982    0.66719991    0.54036035    0.11830000
opls_521-210    C    0.05145019    0.66351009    0.57190025    0.12670000
opls_521-211    C    0.10604991    0.51743001    0.56250000    0.13150000
opls_521-212    C    0.48494015    0.56917020    0.56177057    0.11590000
opls_521-213    C    0.15460980    0.56590986    0.58480050    0.14490000
opls_521-214    C    0.67887005    0.61872006    0.52337032    0.10620000
opls_521-215    C    0.00258988    0.61516989    0.55515960    0.14480000
opls_700-216    C    0.53487990    0.52138001    0.52924938    -0.00030000
opls_700-217    C    0.58228999    0.56988991    0.53346010    -0.00020000
opls_523-218    C    0.53602002    0.47463994    0.51024938    -0.12200000
opls_700-219    C    0.63013007    0.56999016    0.51737032    0.00870000
opls_700-220    C    0.58320982    0.47435986    0.49490025    0.06830000
opls_523-221    C    0.62988997    0.52271996    0.49816958    -0.14560000
opls_700-222    C    0.62898984    0.66631988    0.55051995    -0.00320000
opls_523-223    C    0.62825004    0.71337007    0.55553990    -0.14570000
opls_700-224    C    0.58147994    0.61777995    0.55100998    0.00060000
opls_700-225    C    0.58122015    0.71434021    0.55789027    0.06830000
opls_700-226    C    0.53377005    0.61809007    0.56170948    -0.01200000
opls_523-227    C    0.53455983    0.66612991    0.56202993    -0.14450000
opls_700-228    C    0.05696015    0.51805999    0.54970948    0.00030000
opls_523-229    C    0.00935006    0.47160000    0.52373940    -0.12460000
opls_523-230    C    0.05755998    0.56628005    0.56220948    0.00800000
opls_700-231    C    0.96166981    0.47114984    0.51076060    0.06380000
opls_700-232    C    0.00974005    0.56642009    0.54760973    0.00790000
opls_523-233    C    0.96288003    0.51917993    0.52260973    -0.12200000
opls_700-234    C    0.10024013    0.66261017    0.57935037    0.00160000
opls_523-235    C    0.14818995    0.70981990    0.57739027    -0.14560000
opls_523-236    C    0.09906010    0.61404995    0.58123940    0.00800000
opls_700-237    C    0.19612006    0.71077990    0.57857980    0.06910000
opls_700-238    C    0.14731004    0.61459022    0.58821945    0.00800000
opls_523-239    C    0.19466996    0.66252006    0.58617955    -0.09140000
opls_516-240    C    0.25629002    0.09315989    0.51013965    0.27630000
opls_135-241    C    0.24925989    0.03789995    0.50422943    -0.42760000
opls_135-242    C    0.28673019    0.12299013    0.35254988    -0.42540000
opls_135-243    C    0.28826001    0.12124996    0.66756983    -0.42540000
opls_516-244    C    0.91209008    0.09764002    0.52021945    0.27580000
opls_135-245    C    0.86291005    0.04310994    0.52098005    -0.41500000
opls_135-246    C    0.91168015    0.12715001    0.67895012    -0.42540000
opls_135-247    C    0.91053010    0.12700997    0.36277057    -0.42540000
opls_516-248    C    0.91119007    0.42123018    0.45851995    0.23540000
opls_135-249    C    0.91107017    0.42262006    0.26854988    -0.40360000
opls_135-250    C    0.91041015    0.37071018    0.51014963    -0.41650000
opls_135-251    C    0.86090017    0.41982002    0.51726060    -0.41920000
opls_516-252    C    0.58587996    0.42383010    0.47542020    0.27970000
opls_135-253    C    0.53159000    0.37457008    0.48844015    -0.41470000
opls_135-254    C    0.60904990    0.42394011    0.30282045    -0.41580000
opls_135-255    C    0.62151021    0.42219018    0.61351995    -0.42270000
opls_516-256    C    0.24887021    0.76211011    0.56655985    0.27640000
opls_135-257    C    0.27651996    0.76115987    0.40400998    -0.42530000
opls_135-258    C    0.24207986    0.81049986    0.56192020    -0.42760000
opls_135-259    C    0.28274007    0.76689022    0.71950000    -0.41610000
opls_516-260    C    0.58297015    0.76741996    0.55173940    0.27980000
opls_135-261    C    0.61307989    0.80018989    0.70553990    -0.42550000
opls_135-262    C    0.61119998    0.79598009    0.38969950    -0.42270000
opls_135-263    C    0.52830007    0.76186007    0.55122943    -0.42240000
opls_700-264    C    0.08860997    0.95720994    0.98046010    0.06910000
opls_523-265    C    0.08817003    0.00446999    0.97993017    -0.14450000
opls_700-266    C    0.04119015    0.00568004    0.98003990    0.00170000
opls_700-267    C    0.99259004    0.95841023    0.98044015    -0.00250000
opls_700-268    C    0.99274994    0.91054008    0.98123940    -0.00210000
opls_523-269    C    0.04021994    0.91057987    0.98127057    -0.14570000
opls_521-270    C    0.04184975    0.05538983    0.97909975    0.11800000
opls_700-271    C    0.94386019    0.95882021    0.98030050    -0.00200000
opls_700-272    C    0.94365990    0.00668997    0.98147007    0.00240000
opls_523-273    C    0.89595018    0.00643017    0.98428055    -0.14450000
opls_700-274    C    0.84770983    0.95972989    0.98401995    0.06550000
opls_523-275    C    0.84841985    0.91249987    0.98050000    -0.12200000
opls_700-276    C    0.89530006    0.91129996    0.97948005    0.00240000
opls_521-277    C    0.94334019    0.86128005    0.98068953    0.11840000
opls_521-278    C    0.89462008    0.86150006    0.97863965    0.12720000
opls_521-279    C    0.84979019    0.77163016    0.97549002    0.16910000
opls_521-280    C    0.89821022    0.77158023    0.97799002    0.17210000
opls_522-281    C    0.80245000    0.72317020    0.97011970    -0.19990000
opls_522-282    C    0.89747998    0.72336017    0.97352993    -0.19990000
opls_700-283    C    0.85074988    0.67577985    0.96634040    0.03000000
opls_521-284    C    0.99326001    0.05598003    0.97986035    0.11200000
opls_521-285    C    0.03927006    0.14586983    0.97492020    0.17380000
opls_521-286    C    0.08738997    0.14520005    0.97550998    0.17200000
opls_522-287    C    0.04102982    0.19466995    0.97066958    -0.20010000
opls_522-288    C    0.13522990    0.19318996    0.97496010    -0.20000000
opls_700-289    C    0.13671011    0.24111004    0.97122943    0.03010000
opls_700-290    C    0.80188995    0.67566009    0.96608978    0.02950000
opls_700-291    C    0.75228015    0.62589998    0.95966958    0.03500000
opls_522-292    C    0.70457007    0.62478004    0.97245012    -0.20030000
opls_700-293    C    0.75272982    0.57759995    0.94015960    0.03400000
opls_700-294    C    0.85124002    0.62646014    0.95447007    0.02930000
opls_521-295    C    0.65610004    0.57742987    0.96514963    0.16940000
opls_522-296    C    0.70505994    0.53085013    0.93192020    -0.20050000
opls_700-297    C    0.80271998    0.57794986    0.93474938    0.03400000
opls_522-298    C    0.89831013    0.62604002    0.95955985    -0.20040000
opls_521-299    C    0.65656012    0.52956011    0.94414963    0.17380000
opls_522-300    C    0.80437006    0.53181013    0.91556983    -0.20140000
opls_521-301    C    0.90012004    0.57921998    0.94410973    0.17430000
opls_521-302    C    0.85206002    0.53118989    0.92050000    0.16940000
opls_700-303    C    0.08829995    0.24188982    0.96697007    0.03520000
opls_700-304    C    0.08924983    0.29205992    0.96087032    0.03010000
opls_522-305    C    0.04351986    0.29422997    0.93881047    -0.20040000
opls_700-306    C    0.13813997    0.34023005    0.97824938    0.03000000
opls_700-307    C    0.18680009    0.29035018    0.97533042    0.03010000
opls_521-308    C    0.04383005    0.34235992    0.93900998    0.16970000
opls_522-309    C    0.13869022    0.38774015    0.97749002    -0.20000000
opls_700-310    C    0.18712004    0.33913001    0.98879052    0.03010000
opls_522-311    C    0.23423999    0.29076016    0.96810973    -0.20040000
opls_521-312    C    0.09231011    0.39018014    0.95962968    0.16970000
opls_522-313    C    0.23468004    0.38546010    0.00415960    -0.19980000
opls_521-314    C    0.28283979    0.33796989    0.97647007    0.17430000
opls_521-315    C    0.28278010    0.38606005    0.99737032    0.16770000
opls_521-316    C    0.37273007    0.38330995    0.97126060    0.11800000
opls_521-317    C    0.56598024    0.53209021    0.97172943    0.12450000
opls_521-318    C    0.94596008    0.53502989    0.93881047    0.11730000
opls_521-319    C    0.00065982    0.38889988    0.92764963    0.11890000
opls_521-320    C    0.37235003    0.43156004    0.99055985    0.09980000
opls_521-321    C    0.04951004    0.43719015    0.94584040    0.14480000
opls_521-322    C    0.56653011    0.48368993    0.95265960    0.11710000
opls_521-323    C    0.89737992    0.48653990    0.91695012    0.14510000
opls_700-324    C    0.42287014    0.38499005    0.95932045    0.00370000
opls_700-325    C    0.47010990    0.43390992    0.96157980    -0.00260000
opls_523-326    C    0.42457006    0.33850002    0.94792020    -0.14450000
opls_700-327    C    0.51815985    0.43442990    0.94891022    0.00190000
opls_700-328    C    0.47203995    0.33848012    0.93850998    0.06860000
opls_523-329    C    0.51837017    0.38702005    0.93839027    -0.14450000
opls_700-330    C    0.51588994    0.53079005    0.98520948    0.00350000
opls_523-331    C    0.51317007    0.57676985    0.00368953    -0.08660000
opls_700-332    C    0.46897007    0.48160999    0.98050000    0.00060000
opls_700-333    C    0.46508985    0.57574002    0.01699002    0.06380000
opls_700-334    C    0.42069991    0.48044013    0.99567955    -0.00010000
opls_523-335    C    0.41938022    0.52690012    0.01350998    -0.15850000
opls_700-336    C    0.95189014    0.38988016    0.91870948    0.00230000
opls_523-337    C    0.90392988    0.34282997    0.92047007    -0.12200000
opls_523-338    C    0.95304006    0.43847002    0.91732045    0.00800000
opls_700-339    C    0.85588019    0.34188011    0.92034040    0.06900000
opls_700-340    C    0.90480011    0.43793014    0.91092020    0.00790000
opls_523-341    C    0.85730994    0.39001006    0.91306983    -0.13400000
opls_700-342    C    0.99514999    0.53442994    0.94915960    0.00130000
opls_523-343    C    0.04281987    0.58088993    0.97443017    -0.12460000
opls_523-344    C    0.99456014    0.48620013    0.93656983    0.00800000
opls_700-345    C    0.09049997    0.58131006    0.98710973    0.06620000
opls_700-346    C    0.04235022    0.48598012    0.95159975    0.00800000
opls_523-347    C    0.08922998    0.53324018    0.97606983    -0.12200000
opls_516-348    C    0.13932001    0.95443018    0.97924938    0.27630000
opls_135-349    C    0.14089002    0.92521003    0.13709975    -0.42540000
opls_135-350    C    0.13979014    0.92481019    0.82091022    -0.42540000
opls_135-351    C    0.18845000    0.00898992    0.97829052    -0.41500000
opls_516-352    C    0.79491009    0.95860995    0.98895012    0.27640000
opls_135-353    C    0.76284014    0.93046995    0.83172943    -0.42550000
opls_135-354    C    0.76459000    0.92881989    0.14677057    -0.42540000
opls_135-355    C    0.80193988    0.01386989    0.99489027    -0.42770000
opls_516-356    C    0.80477002    0.28906991    0.93540025    0.28110000
opls_135-357    C    0.80028000    0.25395986    0.78630050    -0.41590000
opls_135-358    C    0.80637014    0.26303013    0.10093017    -0.42260000
opls_135-359    C    0.75605002    0.29525004    0.93714963    -0.41470000
opls_516-360    C    0.47165989    0.28610994    0.93205985    0.27500000
opls_135-361    C    0.44865011    0.25672010    0.09771945    -0.42540000
opls_135-362    C    0.43767018    0.25315004    0.78399002    -0.42550000
opls_135-363    C    0.52685979    0.29380985    0.91055985    -0.42830000
opls_516-364    C    0.14091996    0.63120007    0.04006983    0.23560000
opls_135-365    C    0.14185997    0.68178015    0.98802993    -0.41700000
opls_135-366    C    0.14044022    0.62951022    0.23005985    -0.40360000
opls_135-367    C    0.19143992    0.63282985    0.98286035    -0.41670000
opls_516-368    C    0.46183987    0.62564993    0.04613965    0.26120000
opls_135-369    C    0.48107988    0.64483006    0.22376060    -0.41670000
opls_135-370    C    0.49615003    0.66881994    0.92224938    -0.41910000
opls_135-371    C    0.40557007    0.61565008    0.02918953    -0.42550000
opls_520-372    N    0.96336013    0.95229017    0.52111970    -0.31660000
opls_520-373    N    0.10682985    0.23503992    0.52666958    -0.29560000
opls_520-374    N    0.05859999    0.95114995    0.52179052    -0.31750000
opls_520-375    N    0.20253999    0.23478012    0.52962968    -0.31490000
opls_520-376    N    0.44096009    0.47485020    0.54023940    -0.31760000
opls_520-377    N    0.44032994    0.56979004    0.57640025    -0.31570000
opls_520-378    N    0.10522025    0.47205016    0.55233042    -0.31920000
opls_520-379    N    0.20010997    0.56714019    0.59845012    -0.31720000
opls_520-380    N    0.72284010    0.71312003    0.54532045    -0.31760000
opls_520-381    N    0.72334996    0.61793013    0.51161970    -0.30130000
opls_520-382    N    0.95759991    0.61500995    0.54286035    -0.31720000
opls_520-383    N    0.05378982    0.70965997    0.57750000    -0.28470000
opls_520-384    N    0.84888015    0.81716018    0.97630050    -0.31600000
opls_520-385    N    0.99255009    0.10067996    0.97799002    -0.31760000
opls_520-386    N    0.94464985    0.81694993    0.98098005    -0.30100000
opls_520-387    N    0.08778023    0.09946016    0.97754988    -0.30760000
opls_520-388    N    0.32849010    0.33744991    0.96477057    -0.31440000
opls_520-389    N    0.32798999    0.43247011    0.00479052    -0.27030000
opls_520-390    N    0.99828018    0.34273011    0.92308978    -0.28470000
opls_520-391    N    0.09435991    0.43719015    0.96163965    -0.31820000
opls_520-392    N    0.61034983    0.57778992    0.97782045    -0.31580000
opls_520-393    N    0.61114014    0.48308998    0.93841022    -0.31670000
opls_520-394    N    0.85170993    0.48519020    0.90740025    -0.31620000
opls_520-395    N    0.94661992    0.58027009    0.95218953    -0.32370000
