#======================================================================
# Crystal Data Generated By AuToFF
#----------------------------------------------------------------------

data_AuToFF_phase_1

_cell_length_a                         30.3605
_cell_length_b                         30.3605
_cell_length_c                         3.5701
_cell_angle_alpha                      90.00
_cell_angle_beta                       90.00
_cell_angle_gamma                      120.00
_symmetry_space_group_name_H-M_alt     'P 1'
_symmetry_space_group_IT_number        1

loop_
_space_group_symop_operation_xyz
   'x, y, z'

loop_
   _atom_site_label
   _atom_site_type_symbol
   _atom_site_fract_x
   _atom_site_fract_y
   _atom_site_fract_z
   _atom_site_charge
opls_700-0    C    0.51141995    0.14511983    0.40457130    0.12840000
opls_523-1    C    0.46270016    0.13912013    0.35374919    -0.12520000
opls_522-2    C    0.41909999    0.09150016    0.38279880    -0.17740000
opls_521-3    C    0.42159010    0.04741992    0.47032016    0.12760000
opls_522-4    C    0.47073011    0.05304994    0.50540881    -0.04870000
opls_523-5    C    0.51429021    0.10061020    0.46744909    -0.21200000
opls_142-6    C    0.36495992    0.80591002    0.39231954    -0.09210000
opls_141-7    C    0.32616006    0.75873998    0.48772864    -0.00380000
opls_423-8    C    0.27826993    0.75152018    0.62534943    0.24230000
opls_700-9    C    0.33039998    0.71183009    0.47521918    0.06490000
opls_145-10    C    0.28594015    0.66377996    0.47551889    -0.16270000
opls_700-11    C    0.85488002    0.36629995    0.40457130    0.12840000
opls_523-12    C    0.86088001    0.32358015    0.35374919    -0.12520000
opls_522-13    C    0.90849998    0.32760024    0.38279880    -0.17740000
opls_521-14    C    0.95258003    0.37417012    0.47032016    0.12760000
opls_522-15    C    0.94695017    0.41768025    0.50540881    -0.04870000
opls_523-16    C    0.89938983    0.41367994    0.46744909    -0.21200000
opls_142-17    C    0.19408999    0.55905003    0.39231954    -0.09210000
opls_141-18    C    0.24126008    0.56741995    0.48772864    -0.00380000
opls_423-19    C    0.24848005    0.52675013    0.62534943    0.24230000
opls_700-20    C    0.28817014    0.61857014    0.47521918    0.06490000
opls_145-21    C    0.33621994    0.62216008    0.47551889    -0.16270000
opls_700-22    C    0.63370003    0.48858021    0.40457130    0.12840000
opls_523-23    C    0.67642001    0.53730010    0.35374919    -0.12520000
opls_522-24    C    0.67239989    0.58089998    0.38279880    -0.17740000
opls_521-25    C    0.62582987    0.57840996    0.47032016    0.12760000
opls_522-26    C    0.58232025    0.52927019    0.50540881    -0.04870000
opls_523-27    C    0.58632015    0.48571024    0.46744909    -0.21200000
opls_142-28    C    0.44095009    0.63503995    0.39231954    -0.09210000
opls_141-29    C    0.43258019    0.67384007    0.48772864    -0.00380000
opls_423-30    C    0.47324988    0.72173008    0.62534943    0.24230000
opls_700-31    C    0.38143007    0.66960015    0.47521918    0.06490000
opls_145-32    C    0.37783991    0.71405996    0.47551889    -0.16270000
opls_700-33    C    0.14512001    0.51142017    0.40457130    0.12840000
opls_523-34    C    0.13911991    0.46269990    0.35374919    -0.12520000
opls_522-35    C    0.09149991    0.41910002    0.38279880    -0.17740000
opls_521-36    C    0.04741991    0.42159004    0.47032016    0.12760000
opls_522-37    C    0.05305024    0.47073019    0.50540881    -0.04870000
opls_523-38    C    0.10061010    0.51429014    0.46744909    -0.21200000
opls_142-39    C    0.80591014    0.36496005    0.39231954    -0.09210000
opls_141-40    C    0.75874012    0.32615993    0.48772864    -0.00380000
opls_423-41    C    0.75151980    0.27826992    0.62534943    0.24230000
opls_700-42    C    0.71183011    0.33040023    0.47521918    0.06490000
opls_145-43    C    0.66377995    0.28594004    0.47551889    -0.16270000
opls_700-44    C    0.36630011    0.85488017    0.40457130    0.12840000
opls_523-45    C    0.32358023    0.86088025    0.35374919    -0.12520000
opls_522-46    C    0.32760002    0.90850022    0.38279880    -0.17740000
opls_521-47    C    0.37417018    0.95258008    0.47032016    0.12760000
opls_522-48    C    0.41768016    0.94695006    0.50540881    -0.04870000
opls_523-49    C    0.41368020    0.89939018    0.46744909    -0.21200000
opls_142-50    C    0.55904990    0.19408998    0.39231954    -0.09210000
opls_141-51    C    0.56742008    0.24126002    0.48772864    -0.00380000
opls_423-52    C    0.52674994    0.24848020    0.62534943    0.24230000
opls_700-53    C    0.61856990    0.28816991    0.47521918    0.06490000
opls_145-54    C    0.62216018    0.33622004    0.47551889    -0.16270000
opls_700-55    C    0.48858007    0.63370005    0.40457130    0.12840000
opls_523-56    C    0.53730005    0.67642023    0.35374919    -0.12520000
opls_522-57    C    0.58089993    0.67240014    0.38279880    -0.17740000
opls_521-58    C    0.57841010    0.62583026    0.47032016    0.12760000
opls_522-59    C    0.52927011    0.58232013    0.50540881    -0.04870000
opls_523-60    C    0.48570989    0.58632006    0.46744909    -0.21200000
opls_142-61    C    0.63503996    0.44094997    0.39231954    -0.09210000
opls_141-62    C    0.67384013    0.43258005    0.48772864    -0.00380000
opls_423-63    C    0.72173012    0.47325025    0.62534943    0.24230000
opls_700-64    C    0.66960018    0.38143024    0.47521918    0.06490000
opls_145-65    C    0.71405986    0.37783992    0.47551889    -0.16270000
opls_905-66    C    0.99999990    0.32963995    0.61359906    -0.27670000
opls_905-67    C    0.67035995    0.67036005    0.61359906    -0.27660000
opls_905-68    C    0.32964016    0.00000000    0.61359906    -0.27670000
opls_753-69    N    0.74440004    0.24037005    0.75148875    -0.33400000
opls_753-70    N    0.75963015    0.50402998    0.75148875    -0.33390000
opls_753-71    N    0.49597014    0.25559998    0.75148875    -0.33400000
opls_753-72    N    0.24037017    0.74440002    0.75148875    -0.33400000
opls_753-73    N    0.50402999    0.75962995    0.75148875    -0.33400000
opls_753-74    N    0.25560017    0.49597002    0.75148875    -0.33400000
opls_900-75    N    0.37650006    0.00000000    0.51999104    -0.07490000
opls_900-76    N    0.00000015    0.37650002    0.51999104    -0.07490000
opls_900-77    N    0.62350013    0.62349998    0.51999104    -0.07490000
opls_526-78    H    0.45823008    0.17129985    0.28042072    0.11640000
opls_525-79    H    0.38264999    0.08913983    0.33471892    0.11320000
opls_526-80    H    0.55136985    0.10376998    0.50242010    0.11080000
opls_144-81    H    0.40078009    0.80867997    0.30880087    0.10750000
opls_146-82    H    0.24927025    0.66195020    0.48047114    0.11270000
opls_140-83    H    0.69519990    0.66172998    0.77756926    0.11480000
opls_526-84    H    0.82870011    0.28693004    0.28042072    0.11630000
opls_525-85    H    0.91086007    0.29351013    0.33471892    0.11320000
opls_526-86    H    0.89622999    0.44760004    0.50242010    0.11080000
opls_144-87    H    0.19131981    0.59209994    0.30880087    0.10750000
opls_146-88    H    0.33804989    0.58731995    0.48047114    0.11220000
opls_140-89    H    0.33826998    0.03347018    0.77756926    0.11480000
opls_526-90    H    0.71307013    0.54177012    0.28042072    0.11630000
opls_525-91    H    0.70648995    0.61735004    0.33471892    0.11320000
opls_526-92    H    0.55239983    0.44862998    0.50242010    0.11080000
opls_144-93    H    0.40790010    0.59922010    0.30880087    0.10750000
opls_146-94    H    0.41268005    0.75073023    0.48047114    0.11220000
opls_140-95    H    0.96652998    0.30480022    0.77756926    0.11480000
opls_526-96    H    0.17130021    0.45823026    0.28042072    0.11630000
opls_525-97    H    0.08913990    0.38264996    0.33471892    0.11320000
opls_526-98    H    0.10376986    0.55137002    0.50242010    0.11080000
opls_144-99    H    0.80868000    0.40077990    0.30880087    0.10750000
opls_146-100    H    0.66195001    0.24927015    0.48047114    0.11270000
opls_140-101    H    0.66172995    0.69520016    0.77756926    0.11480000
opls_526-102    H    0.28693024    0.82870015    0.28042072    0.11630000
opls_525-103    H    0.29351016    0.91086017    0.33471892    0.11320000
opls_526-104    H    0.44759987    0.89623002    0.50242010    0.11080000
opls_144-105    H    0.59210013    0.19132003    0.30880087    0.10750000
opls_146-106    H    0.58732025    0.33805019    0.48047114    0.11270000
opls_140-107    H    0.03346992    0.33827002    0.77756926    0.11480000
opls_526-108    H    0.54177007    0.71306996    0.28042072    0.11630000
opls_525-109    H    0.61735013    0.70649025    0.33471892    0.11320000
opls_526-110    H    0.44862995    0.55239996    0.50242010    0.11080000
opls_144-111    H    0.59921987    0.40790006    0.30880087    0.10750000
opls_146-112    H    0.75072994    0.41268005    0.48047114    0.11220000
opls_140-113    H    0.30479980    0.96652982    0.77756926    0.11480000
opls_140-114    H    0.69264013    0.69264016    0.37523039    0.10530000
opls_140-115    H    0.30735989    0.00000000    0.37523039    0.10530000
opls_140-116    H    0.00000016    0.30736022    0.37523039    0.10530000
opls_202-117    S    0.47885015    0.00000000    0.61573065    0.08150000
opls_202-118    S    0.00000021    0.47885023    0.61573065    0.08150000
opls_202-119    S    0.52115016    0.52115015    0.61573065    0.08150000
