#======================================================================
# Crystal Data Generated By AuToFF
#----------------------------------------------------------------------

data_AuToFF_phase_1

_cell_length_a                         25.4690
_cell_length_b                         25.4690
_cell_length_c                         3.5260
_cell_angle_alpha                      90.00
_cell_angle_beta                       90.00
_cell_angle_gamma                      120.00
_symmetry_space_group_name_H-M_alt     'P 1'
_symmetry_space_group_IT_number        1

loop_
_space_group_symop_operation_xyz
   'x, y, z'

loop_
   _atom_site_label
   _atom_site_type_symbol
   _atom_site_fract_x
   _atom_site_fract_y
   _atom_site_fract_z
   _atom_site_charge
opls_145-0    C    0.49836994    0.38065993    0.50000000    -0.14030000
opls_145-1    C    0.53479028    0.35431024    0.50000000    -0.09770000
opls_700-2    C    0.59799014    0.39059020    0.50000000    0.10560000
opls_145-3    C    0.62473009    0.45407992    0.50000000    -0.08290000
opls_145-4    C    0.58807986    0.48083992    0.50000000    -0.14020000
opls_145-5    C    0.52511993    0.44415010    0.50000000    0.24880000
opls_145-6    C    0.40489017    0.61372003    0.50000000    -0.20840000
opls_145-7    C    0.46828019    0.65045020    0.50000000    -0.05540000
opls_145-8    C    0.37834015    0.55068006    0.50000000    -0.05550000
opls_145-9    C    0.50492021    0.62369020    0.50000000    -0.08050000
opls_145-10    C    0.41499015    0.52394001    0.50000000    -0.08450000
opls_700-11    C    0.47837007    0.56066020    0.50000000    0.07500000
opls_142-12    C    0.51279007    0.53161021    0.50000000    0.01610000
opls_700-13    C    0.63450990    0.36338000    0.50000000    0.10810000
opls_145-14    C    0.69780989    0.39767011    0.50000000    -0.14460000
opls_145-15    C    0.61934000    0.11771018    0.50000000    -0.14030000
opls_145-16    C    0.64569013    0.18047994    0.50000000    -0.09770000
opls_700-17    C    0.60941007    0.20739999    0.50000000    0.10560000
opls_145-18    C    0.54591977    0.17064987    0.50000000    -0.08290000
opls_145-19    C    0.51916004    0.10723994    0.50000000    -0.14020000
opls_145-20    C    0.55584997    0.08097004    0.50000000    0.24880000
opls_145-21    C    0.38628000    0.79117007    0.50000000    -0.20840000
opls_145-22    C    0.34954983    0.81782988    0.50000000    -0.05540000
opls_145-23    C    0.44931979    0.82765995    0.50000000    -0.05550000
opls_145-24    C    0.37631007    0.88122982    0.50000000    -0.08050000
opls_145-25    C    0.47606012    0.89104993    0.50000000    -0.08450000
opls_700-26    C    0.43934000    0.91771018    0.50000000    0.07500000
opls_142-27    C    0.46839005    0.98117995    0.50000000    0.01610000
opls_700-28    C    0.63662000    0.27112999    0.50000000    0.10810000
opls_145-29    C    0.60233005    0.30014009    0.50000000    -0.14460000
opls_145-30    C    0.88229007    0.50162988    0.50000000    -0.14030000
opls_145-31    C    0.81951998    0.46520982    0.50000000    -0.09770000
opls_700-32    C    0.79259979    0.40200981    0.50000000    0.10560000
opls_145-33    C    0.82935013    0.37527021    0.50000000    -0.08290000
opls_145-34    C    0.89276010    0.41192013    0.50000000    -0.14020000
opls_145-35    C    0.91903010    0.47487986    0.50000000    0.24880000
opls_145-36    C    0.20882983    0.59510990    0.50000000    -0.20840000
opls_145-37    C    0.18216999    0.53171992    0.50000000    -0.05540000
opls_145-38    C    0.17234006    0.62165999    0.50000000    -0.05550000
opls_145-39    C    0.11877011    0.49507998    0.50000000    -0.08050000
opls_145-40    C    0.10895012    0.58501006    0.50000000    -0.08450000
opls_700-41    C    0.08229016    0.52163006    0.50000000    0.07500000
opls_142-42    C    0.01881989    0.48720984    0.50000000    0.01610000
opls_700-43    C    0.72887010    0.36549001    0.50000000    0.10810000
opls_145-44    C    0.69986007    0.30218980    0.50000000    -0.14460000
opls_750-45    N    0.48846993    0.47089016    0.50000000    -0.28050000
opls_750-46    N    0.52911003    0.01758007    0.50000000    -0.28050000
opls_750-47    N    0.98242026    0.51153023    0.50000000    -0.28050000
opls_146-48    H    0.44667993    0.35066011    0.50000000    0.04610000
opls_146-49    H    0.51310005    0.30262005    0.50000000    0.04610000
opls_146-50    H    0.67642013    0.48400992    0.50000000    0.04610000
opls_146-51    H    0.60990006    0.53253010    0.50000000    0.04610000
opls_146-52    H    0.49002006    0.70213993    0.50000000    0.04610000
opls_146-53    H    0.32665011    0.52075006    0.50000000    0.04610000
opls_146-54    H    0.55661991    0.65357985    0.50000000    0.04610000
opls_146-55    H    0.39317988    0.47223985    0.50000000    0.04620000
opls_144-56    H    0.56463988    0.55971990    0.50000000    0.03190000
opls_146-57    H    0.71979013    0.44720993    0.50000000    0.08900000
opls_146-58    H    0.64933976    0.09601982    0.50000000    0.04610000
opls_146-59    H    0.69737996    0.21048021    0.50000000    0.04610000
opls_146-60    H    0.51598986    0.19241005    0.50000000    0.04610000
opls_146-61    H    0.46747009    0.07736979    0.50000000    0.04610000
opls_146-62    H    0.29786002    0.78787993    0.50000000    0.04610000
opls_146-63    H    0.47924993    0.80590022    0.50000000    0.04610000
opls_146-64    H    0.34642001    0.90303988    0.50000000    0.04610000
opls_146-65    H    0.52776005    0.92094003    0.50000000    0.04610000
opls_144-66    H    0.44028011    0.00492002    0.50000000    0.03190000
opls_146-67    H    0.55279000    0.27257988    0.50000000    0.08910000
opls_146-68    H    0.90397991    0.55332006    0.50000000    0.04610000
opls_146-69    H    0.78952022    0.48690018    0.50000000    0.04610000
opls_146-70    H    0.80759001    0.32358003    0.50000000    0.04610000
opls_146-71    H    0.92263025    0.39010011    0.50000000    0.04610000
opls_146-72    H    0.21211992    0.50998014    0.50000000    0.04610000
opls_146-73    H    0.19410019    0.67335017    0.50000000    0.04610000
opls_146-74    H    0.09695985    0.44337982    0.50000000    0.04610000
opls_146-75    H    0.07906007    0.60682012    0.50000000    0.04610000
opls_144-76    H    0.99508001    0.43536007    0.50000000    0.03190000
opls_146-77    H    0.72742026    0.28021018    0.50000000    0.08900000
MOF2_B_2-78    B    0.36974981    0.63984984    0.50000000    0.81990000
MOF2_B_2-79    B    0.36015009    0.72990008    0.50000000    0.81980000
MOF2_B_2-80    B    0.27010011    0.63025008    0.50000000    0.81980000
opls_180-81    O    0.30865009    0.60496990    0.50000000    -0.49270000
opls_180-82    O    0.39503017    0.70368004    0.50000000    -0.49270000
opls_180-83    O    0.29632013    0.69135006    0.50000000    -0.49270000
