#======================================================================
# Crystal Data Generated By AuToFF
#----------------------------------------------------------------------

data_AuToFF_phase_1

_cell_length_a                         25.5836
_cell_length_b                         25.5836
_cell_length_c                         4.2164
_cell_angle_alpha                      90.00
_cell_angle_beta                       90.00
_cell_angle_gamma                      120.00
_symmetry_space_group_name_H-M_alt     'P 1'
_symmetry_space_group_IT_number        1

loop_
_space_group_symop_operation_xyz
   'x, y, z'

loop_
   _atom_site_label
   _atom_site_type_symbol
   _atom_site_fract_x
   _atom_site_fract_y
   _atom_site_fract_z
   _atom_site_charge
opls_521-0    C    0.38950997    0.66875007    0.97324020    0.04730000
opls_521-1    C    0.33124991    0.72075979    0.97324020    0.04730000
opls_521-2    C    0.27924013    0.61049014    0.97324020    0.04730000
opls_521-3    C    0.38737978    0.72285990    0.97523954    0.04720000
opls_521-4    C    0.27713996    0.66452007    0.97523954    0.04760000
opls_521-5    C    0.33547987    0.61262003    0.97523954    0.04730000
opls_700-6    C    0.77613000    0.66473988    0.96825017    0.06130000
opls_700-7    C    0.33526975    0.11138989    0.96825017    0.06130000
opls_700-8    C    0.88860979    0.22386978    0.96825017    0.06130000
opls_145-9    C    0.85270006    0.63429989    0.90142064    -0.19530000
opls_145-10    C    0.36569984    0.21839994    0.90142064    -0.19530000
opls_145-11    C    0.78160010    0.14730017    0.90142064    -0.19530000
opls_145-12    C    0.81940005    0.71579004    0.13937957    -0.19500000
opls_145-13    C    0.28421017    0.10361007    0.13937957    -0.19500000
opls_145-14    C    0.89638978    0.18059988    0.13937957    -0.19510000
opls_145-15    C    0.79359995    0.62371000    0.85377099    -0.19450000
opls_145-16    C    0.37628982    0.16988994    0.85377099    -0.19450000
opls_145-17    C    0.83010985    0.20640006    0.85377099    -0.19450000
opls_700-18    C    0.31346988    0.20972014    0.06253913    0.05140000
opls_700-19    C    0.79028007    0.10374999    0.06253913    0.05140000
opls_700-20    C    0.89625005    0.68652986    0.06253913    0.05280000
opls_145-21    C    0.27333000    0.15174997    0.18465990    -0.21930000
opls_145-22    C    0.84824999    0.12156995    0.18465990    -0.21930000
opls_145-23    C    0.87842990    0.72667014    0.18465990    -0.21930000
opls_521-24    C    0.28466992    0.50355005    0.99228014    0.09450000
opls_521-25    C    0.49645002    0.78111983    0.99228014    0.09450000
opls_521-26    C    0.21887994    0.71534005    0.99228014    0.09450000
opls_521-27    C    0.22737994    0.50144994    0.97960108    0.09610000
opls_521-28    C    0.49854987    0.72592994    0.97960108    0.09700000
opls_521-29    C    0.27407019    0.77262012    0.97960108    0.09610000
opls_700-30    C    0.29745996    0.45543994    0.00808035    0.02590000
opls_700-31    C    0.54455991    0.84202013    0.00808035    0.02590000
opls_700-32    C    0.15798013    0.70253994    0.00808035    0.02590000
opls_523-33    C    0.34888011    0.46221010    0.17482924    -0.09540000
opls_523-34    C    0.53778993    0.88666978    0.17482924    -0.09540000
opls_523-35    C    0.11332996    0.65112012    0.17482924    -0.09540000
opls_145-36    C    0.36321981    0.41564990    0.18618964    -0.22650000
opls_145-37    C    0.58435001    0.94757008    0.18618964    -0.22650000
opls_145-38    C    0.05243018    0.63678002    0.18618964    -0.22650000
opls_145-39    C    0.32576996    0.35994999    0.03719998    0.18600000
opls_145-40    C    0.64004998    0.96581972    0.03719998    0.18600000
opls_145-41    C    0.03417984    0.67422984    0.03719998    0.18600000
opls_145-42    C    0.27495997    0.35254976    0.86854900    -0.22750000
opls_145-43    C    0.64745005    0.92240991    0.86854900    -0.22750000
opls_145-44    C    0.07758975    0.72503989    0.86854900    -0.22750000
opls_523-45    C    0.26172993    0.39955001    0.85378048    -0.21930000
opls_523-46    C    0.60044999    0.86217986    0.85378048    -0.21930000
opls_523-47    C    0.13782008    0.73827013    0.85378048    -0.21930000
opls_700-48    C    0.16798001    0.45069992    0.98332938    0.02120000
opls_700-49    C    0.54929988    0.71728986    0.98332938    0.02120000
opls_700-50    C    0.28271000    0.83201970    0.98332938    0.02120000
opls_523-51    C    0.15280994    0.39879988    0.16594014    -0.21970000
opls_523-52    C    0.60120011    0.75400985    0.16594014    -0.21970000
opls_523-53    C    0.24598973    0.84718982    0.16594014    -0.21970000
opls_145-54    C    0.09407975    0.34888981    0.17373115    -0.22780000
opls_145-55    C    0.65110971    0.74517976    0.17373115    -0.22780000
opls_145-56    C    0.25482009    0.90592998    0.17373115    -0.22780000
opls_145-57    C    0.04733992    0.34952981    0.00235983    0.18540000
opls_145-58    C    0.65046999    0.69780985    0.00235983    0.18540000
opls_145-59    C    0.30218987    0.95265988    0.00235983    0.18540000
opls_145-60    C    0.06059002    0.40115002    0.82212077    -0.22640000
opls_145-61    C    0.59885021    0.65945013    0.82212077    -0.22650000
opls_145-62    C    0.34056005    0.93940978    0.82212077    -0.22650000
opls_523-63    C    0.12003980    0.45070985    0.81237074    -0.09690000
opls_523-64    C    0.54929002    0.66933005    0.81237074    -0.09690000
opls_523-65    C    0.33067018    0.87996010    0.81237074    -0.09680000
opls_142-66    C    0.29904997    0.25582990    0.09371976    0.09730000
opls_142-67    C    0.74417983    0.04321980    0.09371976    0.09730000
opls_142-68    C    0.95678002    0.70095978    0.09371976    0.09740000
opls_142-69    C    0.93759996    0.28227008    0.90859027    0.09730000
opls_142-70    C    0.71773002    0.65532981    0.90859027    0.09730000
opls_142-71    C    0.34467001    0.06240011    0.90859027    0.09730000
opls_520-72    N    0.33506978    0.55944990    0.98506072    -0.34460000
opls_520-73    N    0.44055002    0.77563013    0.98506072    -0.34460000
opls_520-74    N    0.22436992    0.66492989    0.98506072    -0.34460000
opls_520-75    N    0.22862000    0.55540992    0.97309079    -0.34460000
opls_520-76    N    0.44458998    0.67321973    0.97309079    -0.34460000
opls_520-77    N    0.32679007    0.77137983    0.97309079    -0.34450000
opls_750-78    N    0.33943992    0.31523986    0.05394887    -0.34300000
opls_750-79    N    0.68475991    0.02420016    0.05394887    -0.34220000
opls_750-80    N    0.97580017    0.66055998    0.05394887    -0.34230000
opls_750-81    N    0.99290003    0.29889985    0.02652025    -0.34240000
opls_750-82    N    0.70109992    0.69400006    0.02652025    -0.34250000
opls_750-83    N    0.30600005    0.00710009    0.02652025    -0.34250000
opls_146-84    H    0.86418989    0.60417990    0.81215018    0.20860000
opls_146-85    H    0.39582988    0.26000979    0.81215018    0.20870000
opls_146-86    H    0.73998978    0.13580986    0.81215018    0.20860000
opls_146-87    H    0.80842985    0.74606981    0.23179964    0.20860000
opls_146-88    H    0.25393975    0.06236987    0.23179964    0.20860000
opls_146-89    H    0.93763006    0.19156980    0.23179964    0.20860000
opls_146-90    H    0.76357016    0.58596004    0.73123043    0.20860000
opls_146-91    H    0.41404001    0.17761018    0.73123043    0.20860000
opls_146-92    H    0.82238983    0.23642978    0.73123043    0.20870000
opls_146-93    H    0.90835004    0.76446975    0.30752063    0.20860000
opls_146-94    H    0.23552990    0.14387989    0.30752063    0.20860000
opls_146-95    H    0.85612999    0.09164991    0.30752063    0.20860000
opls_526-96    H    0.37663992    0.50164989    0.29222085    0.20860000
opls_526-97    H    0.49834995    0.87498990    0.29222085    0.20860000
opls_526-98    H    0.12500990    0.62335976    0.29222085    0.20860000
opls_146-99    H    0.40057997    0.42199986    0.30730955    0.20860000
opls_146-100    H    0.57799979    0.97857967    0.30730955    0.20870000
opls_146-101    H    0.02142001    0.59942002    0.30730955    0.20860000
opls_146-102    H    0.24773981    0.31306979    0.75167916    0.20860000
opls_146-103    H    0.68692986    0.93466976    0.75167916    0.20860000
opls_146-104    H    0.06533011    0.75225999    0.75167916    0.20860000
opls_526-105    H    0.22511017    0.39204010    0.72797884    0.20840000
opls_526-106    H    0.60795996    0.83306997    0.72797884    0.20840000
opls_526-107    H    0.16692987    0.77488993    0.72797884    0.20840000
opls_526-108    H    0.18472993    0.39685007    0.29698084    0.20840000
opls_526-109    H    0.60314984    0.78788006    0.29698084    0.20840000
opls_526-110    H    0.21211984    0.81526987    0.29698084    0.20840000
opls_146-111    H    0.08531993    0.31203983    0.30795940    0.20870000
opls_146-112    H    0.68795998    0.77327998    0.30795940    0.20860000
opls_146-113    H    0.22671986    0.91467974    0.30795940    0.20860000
opls_146-114    H    0.02744000    0.40273018    0.69522104    0.20870000
opls_146-115    H    0.59727997    0.62470973    0.69522104    0.20860000
opls_146-116    H    0.37529019    0.97256009    0.69522104    0.20860000
opls_526-117    H    0.12829994    0.48723983    0.67606963    0.20860000
opls_526-118    H    0.51277001    0.64106012    0.67606963    0.20860000
opls_526-119    H    0.35894021    0.87170005    0.67606963    0.20870000
opls_144-120    H    0.25529019    0.24356011    0.14761882    0.10100000
opls_144-121    H    0.75643997    0.01172998    0.14761882    0.10170000
opls_144-122    H    0.98826984    0.74470991    0.14761882    0.10130000
opls_144-123    H    0.93134979    0.31184981    0.77293900    0.10160000
opls_144-124    H    0.68814977    0.61949987    0.77293900    0.10160000
opls_144-125    H    0.38049983    0.06864987    0.77293900    0.10160000
