#======================================================================
# Crystal Data Generated By AuToFF
#----------------------------------------------------------------------

data_AuToFF_phase_1

_cell_length_a                         44.5787
_cell_length_b                         44.5787
_cell_length_c                         3.5618
_cell_angle_alpha                      90.00
_cell_angle_beta                       90.00
_cell_angle_gamma                      120.00
_symmetry_space_group_name_H-M_alt     'P 1'
_symmetry_space_group_IT_number        1

loop_
_space_group_symop_operation_xyz
   'x, y, z'

loop_
   _atom_site_label
   _atom_site_type_symbol
   _atom_site_fract_x
   _atom_site_fract_y
   _atom_site_fract_z
   _atom_site_charge
opls_700-0    C    0.36394995    0.66285986    0.50000000    0.04500000
opls_716-1    C    0.38964998    0.65457986    0.50000000    -0.17400000
opls_145-2    C    0.44111006    0.57281003    0.50000000    -0.13400000
opls_145-3    C    0.46039007    0.55593998    0.50000000    -0.07470000
opls_145-4    C    0.52227993    0.50738986    0.50000000    -0.07460000
opls_700-5    C    0.63383994    0.33305998    0.50000000    0.04500000
opls_716-6    C    0.60566006    0.33757996    0.50000000    -0.17290000
opls_145-7    C    0.54108981    0.40733984    0.50000000    -0.13400000
opls_145-8    C    0.51861006    0.42064000    0.50000000    -0.07450000
opls_716-9    C    0.45060991    0.46578990    0.50000000    0.12280000
opls_567-10    C    0.66606997    0.36586007    0.50000000    -0.03290000
opls_145-11    C    0.59008995    0.46553994    0.50000000    -0.11090000
opls_145-12    C    0.56752991    0.47874997    0.50000000    -0.07470000
opls_145-13    C    0.50131996    0.52248999    0.50000000    -0.07460000
opls_567-14    C    0.32983001    0.63222988    0.50000000    -0.03290000
opls_145-15    C    0.38818005    0.51744003    0.50000000    -0.11090000
opls_145-16    C    0.40754000    0.50065002    0.50000000    -0.07450000
opls_716-17    C    0.47136986    0.45082990    0.50000000    0.12280000
opls_567-18    C    0.37537013    0.61891003    0.50000000    -0.00780000
opls_142-19    C    0.39747989    0.60331982    0.50000000    0.09070000
opls_700-20    C    0.44389982    0.51957984    0.50000000    0.08280000
opls_145-21    C    0.40479004    0.55356005    0.50000000    0.23540000
opls_700-22    C    0.46501005    0.50210005    0.50000000    0.00250000
opls_567-23    C    0.61631004    0.37259006    0.50000000    -0.00920000
opls_142-24    C    0.59100002    0.38435991    0.50000000    0.09070000
opls_700-25    C    0.53143995    0.45651991    0.50000000    0.08250000
opls_145-26    C    0.57706003    0.42981001    0.50000000    0.23290000
opls_700-27    C    0.50786013    0.47124005    0.50000000    -0.00690000
opls_700-28    C    0.33713989    0.70108990    0.50000000    0.04500000
opls_716-29    C    0.34541988    0.73506986    0.50000000    -0.14470000
opls_145-30    C    0.42718993    0.86829996    0.50000000    -0.13400000
opls_145-31    C    0.44405990    0.90445003    0.50000000    -0.07470000
opls_145-32    C    0.49260992    0.01489006    0.50000000    -0.07460000
opls_700-33    C    0.66694006    0.30078000    0.50000000    0.04500000
opls_716-34    C    0.66241987    0.26807989    0.50000000    -0.17290000
opls_145-35    C    0.59265994    0.13374997    0.50000000    -0.13400000
opls_145-36    C    0.57936007    0.09797005    0.50000000    -0.07450000
opls_716-37    C    0.53420992    0.98481983    0.50000000    0.12280000
opls_567-38    C    0.63413992    0.30020989    0.50000000    -0.03290000
opls_145-39    C    0.53445988    0.12454991    0.50000000    -0.11090000
opls_145-40    C    0.52125007    0.08878009    0.50000000    -0.07470000
opls_145-41    C    0.47750992    0.97882987    0.50000000    -0.07460000
opls_567-42    C    0.36777007    0.69760005    0.50000000    -0.03290000
opls_145-43    C    0.48256001    0.87073998    0.50000000    -0.11090000
opls_145-44    C    0.49935013    0.90689004    0.50000000    -0.07450000
opls_716-45    C    0.54916993    0.02053992    0.50000000    0.12280000
opls_567-46    C    0.38109006    0.75645989    0.50000000    -0.00780000
opls_142-47    C    0.39668002    0.79415997    0.50000000    0.09070000
opls_700-48    C    0.48041999    0.92431985    0.50000000    0.08280000
opls_145-49    C    0.44643994    0.85122994    0.50000000    0.23540000
opls_700-50    C    0.49790004    0.96290993    0.50000000    0.00250000
opls_567-51    C    0.62740990    0.24371987    0.50000000    -0.00920000
opls_142-52    C    0.61563996    0.20663990    0.50000000    0.09070000
opls_700-53    C    0.54347987    0.07491992    0.50000000    0.08250000
opls_145-54    C    0.57019000    0.14725010    0.50000000    0.23290000
opls_700-55    C    0.52876003    0.03661994    0.50000000    -0.00690000
opls_700-56    C    0.29891003    0.63604998    0.50000000    0.04500000
opls_716-57    C    0.26493001    0.61035002    0.50000000    -0.17290000
opls_145-58    C    0.13170001    0.55889002    0.50000000    -0.13400000
opls_145-59    C    0.09555003    0.53961000    0.50000000    -0.07470000
opls_145-60    C    0.98510993    0.47772008    0.50000000    -0.07460000
opls_700-61    C    0.69922001    0.36616002    0.50000000    0.04500000
opls_716-62    C    0.73191995    0.39433989    0.50000000    -0.17290000
opls_145-63    C    0.86624989    0.45890993    0.50000000    -0.13400000
opls_145-64    C    0.90202987    0.48138995    0.50000000    -0.07450000
opls_716-65    C    0.01518003    0.54939001    0.50000000    0.12280000
opls_567-66    C    0.69979011    0.33393004    0.50000000    -0.03290000
opls_145-67    C    0.87545005    0.40990989    0.50000000    -0.11090000
opls_145-68    C    0.91122002    0.43246994    0.50000000    -0.07470000
opls_145-69    C    0.02116998    0.49867988    0.50000000    -0.07460000
opls_567-70    C    0.30240014    0.67017007    0.50000000    -0.03290000
opls_145-71    C    0.12925994    0.61181999    0.50000000    -0.11090000
opls_145-72    C    0.09310987    0.59245993    0.50000000    -0.07450000
opls_716-73    C    0.97945986    0.52862992    0.50000000    0.12280000
opls_567-74    C    0.24353991    0.62462982    0.50000000    -0.00780000
opls_142-75    C    0.20583997    0.60251995    0.50000000    0.09070000
opls_700-76    C    0.07568006    0.55610006    0.50000000    0.08280000
opls_145-77    C    0.14877002    0.59521000    0.50000000    0.23540000
opls_700-78    C    0.03708991    0.53499002    0.50000000    0.00250000
opls_567-79    C    0.75628007    0.38369007    0.50000000    -0.00920000
opls_142-80    C    0.79335989    0.40899993    0.50000000    0.09070000
opls_700-81    C    0.92508005    0.46855992    0.50000000    0.08250000
opls_145-82    C    0.85274997    0.42293989    0.50000000    0.23290000
opls_700-83    C    0.96338007    0.49214001    0.50000000    -0.00690000
opls_633-84    S    0.66047999    0.40089996    0.50000000    0.09320000
opls_633-85    S    0.33066999    0.59450986    0.50000000    0.09320000
opls_202-86    S    0.40778982    0.39900985    0.50000000    0.52880000
opls_633-87    S    0.59910000    0.25957998    0.50000000    0.09330000
opls_633-88    S    0.40548994    0.73615983    0.50000000    0.09320000
opls_202-89    S    0.60098990    0.00877992    0.50000000    0.52880000
opls_633-90    S    0.74042001    0.33952006    0.50000000    0.09320000
opls_633-91    S    0.26383994    0.66933005    0.50000000    0.09320000
opls_202-92    S    0.99121992    0.59220997    0.50000000    0.52880000
opls_750-93    N    0.38424004    0.57000996    0.50000000    -0.28290000
opls_750-94    N    0.60083003    0.41704992    0.50000000    -0.28290000
opls_750-95    N    0.45367992    0.41600993    0.50000000    -0.29820000
opls_750-96    N    0.41645003    0.44282991    0.50000000    -0.29780000
opls_750-97    N    0.42999006    0.81423001    0.50000000    -0.28290000
opls_750-98    N    0.58295003    0.18377990    0.50000000    -0.28290000
opls_750-99    N    0.58399012    0.03767003    0.50000000    -0.29820000
opls_750-100    N    0.55716998    0.97361984    0.50000000    -0.29790000
opls_750-101    N    0.18576990    0.61576002    0.50000000    -0.28290000
opls_750-102    N    0.81622004    0.39916993    0.50000000    -0.28290000
opls_750-103    N    0.96232996    0.54632004    0.50000000    -0.29820000
opls_750-104    N    0.02638008    0.58354999    0.50000000    -0.29790000
opls_570-105    H    0.41795991    0.67599995    0.50000000    0.04990000
opls_146-106    H    0.45488004    0.60231998    0.50000000    0.04990000
opls_146-107    H    0.48989996    0.57167990    0.50000000    0.04990000
opls_146-108    H    0.55168006    0.52448008    0.50000000    0.04990000
opls_570-109    H    0.57840990    0.31409985    0.50000000    0.04990000
opls_146-110    H    0.53023000    0.37813009    0.50000000    0.04990000
opls_146-111    H    0.48939987    0.40228989    0.50000000    0.04990000
opls_146-112    H    0.61929001    0.48396000    0.50000000    0.04990000
opls_146-113    H    0.57830988    0.50794987    0.50000000    0.04990000
opls_146-114    H    0.51362997    0.55188986    0.50000000    0.04990000
opls_146-115    H    0.35868004    0.50164002    0.50000000    0.04990000
opls_144-116    H    0.42680010    0.62099000    0.50000000    0.02940000
opls_144-117    H    0.56210993    0.36464006    0.50000000    0.02940000
opls_570-118    H    0.32400002    0.74197003    0.50000000    0.04930000
opls_146-119    H    0.39768004    0.85256004    0.50000000    0.04990000
opls_146-120    H    0.42831986    0.91821980    0.50000000    0.04990000
opls_146-121    H    0.47551992    0.02719997    0.50000000    0.04990000
opls_570-122    H    0.68589997    0.26431004    0.50000000    0.04990000
opls_146-123    H    0.62187013    0.15210009    0.50000000    0.04990000
opls_146-124    H    0.59770996    0.08710990    0.50000000    0.04990000
opls_146-125    H    0.51603991    0.13533002    0.50000000    0.04990000
opls_146-126    H    0.49205000    0.07036004    0.50000000    0.04990000
opls_146-127    H    0.44810992    0.96173991    0.50000000    0.04990000
opls_146-128    H    0.49836002    0.85703988    0.50000000    0.04990000
opls_144-129    H    0.37901001    0.80581998    0.50000000    0.02940000
opls_144-130    H    0.63535984    0.19746989    0.50000000    0.02940000
opls_570-131    H    0.25802996    0.58203987    0.50000000    0.04990000
opls_146-132    H    0.14743992    0.54511998    0.50000000    0.04990000
opls_146-133    H    0.08178005    0.51010004    0.50000000    0.04990000
opls_146-134    H    0.97280002    0.44831995    0.50000000    0.04990000
opls_570-135    H    0.73569000    0.42158985    0.50000000    0.04990000
opls_146-136    H    0.84790000    0.46977008    0.50000000    0.04990000
opls_146-137    H    0.91289004    0.51059996    0.50000000    0.04990000
opls_146-138    H    0.86467008    0.38070998    0.50000000    0.04990000
opls_146-139    H    0.92964012    0.42169009    0.50000000    0.04990000
opls_146-140    H    0.03825999    0.48636997    0.50000000    0.04990000
opls_146-141    H    0.14296004    0.64131985    0.50000000    0.04990000
opls_144-142    H    0.19418001    0.57319986    0.50000000    0.02940000
opls_144-143    H    0.80253001    0.43789004    0.50000000    0.02940000
opls_146-144    H    0.39384000    0.47114991    0.50000000    0.04990000
opls_146-145    H    0.52885001    0.92268980    0.50000000    0.04990000
opls_146-146    H    0.07731009    0.60616003    0.50000000    0.04990000
