#======================================================================
# Crystal Data Generated By AuToFF
#----------------------------------------------------------------------

data_AuToFF_phase_1

_cell_length_a                         18.5630
_cell_length_b                         18.5630
_cell_length_c                         37.4578
_cell_angle_alpha                      90.00
_cell_angle_beta                       90.00
_cell_angle_gamma                      90.00
_symmetry_space_group_name_H-M_alt     'P 1'
_symmetry_space_group_IT_number        1

loop_
_space_group_symop_operation_xyz
   'x, y, z'

loop_
   _atom_site_label
   _atom_site_type_symbol
   _atom_site_fract_x
   _atom_site_fract_y
   _atom_site_fract_z
   _atom_site_charge
opls_700-0    C    0.47246997    0.47246997    0.56002008    0.03760000
opls_145-1    C    0.43884017    0.43884017    0.58851000    -0.08030000
opls_700-2    C    0.38625007    0.38625007    0.58125010    -0.03710000
opls_166-3    C    0.36822012    0.36820988    0.54558009    0.27660000
opls_145-4    C    0.40381027    0.40381027    0.51723006    -0.18040000
opls_700-5    C    0.45566988    0.45566988    0.52520997    0.00630000
opls_145-6    C    0.27987017    0.27987017    0.66961995    -0.11080000
opls_145-7    C    0.24861014    0.24861014    0.69956004    -0.09240000
opls_700-8    C    0.26829984    0.26829984    0.73442995    0.03340000
opls_700-9    C    0.32255023    0.32255023    0.73809006    0.13560000
opls_145-10    C    0.35357000    0.35357000    0.70782000    -0.16930000
opls_145-11    C    0.33271023    0.33271023    0.67370000    0.23790000
opls_142-12    C    0.14989980    0.85010020    0.11098997    0.09950000
opls_181-13    C    0.79978990    0.20021010    0.00312004    -0.17300000
opls_148-14    C    0.35012013    0.35012013    0.77291005    -0.36350000
opls_700-15    C    0.52753003    0.52753003    0.56002008    0.03760000
opls_145-16    C    0.56115983    0.56115983    0.58851000    -0.08030000
opls_700-17    C    0.61374993    0.61374993    0.58125010    -0.03710000
opls_166-18    C    0.63177988    0.63179012    0.54558009    0.27670000
opls_145-19    C    0.59618973    0.59618973    0.51723006    -0.18050000
opls_700-20    C    0.54433012    0.54433012    0.52520997    0.00630000
opls_145-21    C    0.72012983    0.72012983    0.66961995    -0.11080000
opls_145-22    C    0.75138986    0.75138986    0.69956004    -0.09240000
opls_700-23    C    0.73170016    0.73170016    0.73442995    0.03340000
opls_700-24    C    0.67744977    0.67744977    0.73809006    0.13560000
opls_145-25    C    0.64643000    0.64643000    0.70782000    -0.16920000
opls_145-26    C    0.66728977    0.66728977    0.67370000    0.23790000
opls_142-27    C    0.85010020    0.14989980    0.11098997    0.09950000
opls_181-28    C    0.20021010    0.79978990    0.00312004    -0.17290000
opls_148-29    C    0.64987987    0.64987987    0.77291005    -0.36360000
opls_700-30    C    0.02753003    0.97246997    0.06002008    0.03760000
opls_145-31    C    0.06115983    0.93884017    0.08851000    -0.08030000
opls_700-32    C    0.11374993    0.88625007    0.08125010    -0.03710000
opls_166-33    C    0.13179012    0.86822012    0.04558009    0.27660000
opls_145-34    C    0.09618973    0.90381027    0.01723006    -0.18050000
opls_700-35    C    0.04433012    0.95566988    0.02520997    0.00630000
opls_145-36    C    0.22012983    0.77987017    0.16961995    -0.11080000
opls_145-37    C    0.25138986    0.74861014    0.19956004    -0.09240000
opls_700-38    C    0.23170016    0.76829984    0.23442995    0.03340000
opls_700-39    C    0.17744977    0.82255023    0.23809006    0.13560000
opls_145-40    C    0.14643000    0.85357000    0.20782000    -0.16930000
opls_145-41    C    0.16728977    0.83271023    0.17370000    0.23790000
opls_142-42    C    0.64989980    0.64989980    0.61098997    0.09950000
opls_181-43    C    0.29978990    0.29978990    0.50312004    -0.17300000
opls_148-44    C    0.14987987    0.85012013    0.27291005    -0.36360000
opls_700-45    C    0.97246997    0.02753003    0.06002008    0.03760000
opls_145-46    C    0.93884017    0.06115983    0.08851000    -0.08030000
opls_700-47    C    0.88625007    0.11374993    0.08125010    -0.03710000
opls_166-48    C    0.86820988    0.13177988    0.04558009    0.27660000
opls_145-49    C    0.90381027    0.09618973    0.01723006    -0.18050000
opls_700-50    C    0.95566988    0.04433012    0.02520997    0.00630000
opls_145-51    C    0.77987017    0.22012983    0.16961995    -0.11080000
opls_145-52    C    0.74861014    0.25138986    0.19956004    -0.09240000
opls_700-53    C    0.76829984    0.23170016    0.23442995    0.03340000
opls_700-54    C    0.82255023    0.17744977    0.23809006    0.13560000
opls_145-55    C    0.85357000    0.14643000    0.20782000    -0.16930000
opls_145-56    C    0.83271023    0.16728977    0.17370000    0.23790000
opls_142-57    C    0.35010020    0.35010020    0.61098997    0.09950000
opls_181-58    C    0.70021010    0.70021010    0.50312004    -0.17300000
opls_148-59    C    0.85012013    0.14987987    0.27291005    -0.36360000
opls_700-60    C    0.02753003    0.02753003    0.93997992    0.03760000
opls_145-61    C    0.06115983    0.06115983    0.91149000    -0.08030000
opls_700-62    C    0.11374993    0.11374993    0.91874990    -0.03710000
opls_166-63    C    0.13177988    0.13179012    0.95441991    0.27660000
opls_145-64    C    0.09618973    0.09618973    0.98276994    -0.18050000
opls_700-65    C    0.04433012    0.04433012    0.97479003    0.00630000
opls_145-66    C    0.22012983    0.22012983    0.83038005    -0.11080000
opls_145-67    C    0.25138986    0.25138986    0.80043996    -0.09240000
opls_700-68    C    0.23170016    0.23170016    0.76557005    0.03340000
opls_700-69    C    0.17744977    0.17744977    0.76190994    0.13560000
opls_145-70    C    0.14643000    0.14643000    0.79218000    -0.16930000
opls_145-71    C    0.16728977    0.16728977    0.82630000    0.23790000
opls_142-72    C    0.35010020    0.64989980    0.38901003    0.09950000
opls_181-73    C    0.70021010    0.29978990    0.49687996    -0.17300000
opls_148-74    C    0.14987987    0.14987987    0.72708995    -0.36350000
opls_700-75    C    0.97246997    0.97246997    0.93997992    0.03760000
opls_145-76    C    0.93884017    0.93884017    0.91149000    -0.08030000
opls_700-77    C    0.88625007    0.88625007    0.91874990    -0.03710000
opls_166-78    C    0.86822012    0.86820988    0.95441991    0.27660000
opls_145-79    C    0.90381027    0.90381027    0.98276994    -0.18050000
opls_700-80    C    0.95566988    0.95566988    0.97479003    0.00630000
opls_145-81    C    0.77987017    0.77987017    0.83038005    -0.11080000
opls_145-82    C    0.74861014    0.74861014    0.80043996    -0.09230000
opls_700-83    C    0.76829984    0.76829984    0.76557005    0.03340000
opls_700-84    C    0.82255023    0.82255023    0.76190994    0.13560000
opls_145-85    C    0.85357000    0.85357000    0.79218000    -0.16920000
opls_145-86    C    0.83271023    0.83271023    0.82630000    0.23790000
opls_142-87    C    0.64989980    0.35010020    0.38901003    0.09950000
opls_181-88    C    0.29978990    0.70021010    0.49687996    -0.17300000
opls_148-89    C    0.85012013    0.85012013    0.72708995    -0.36350000
opls_700-90    C    0.47246997    0.52753003    0.43997992    0.03760000
opls_145-91    C    0.43884017    0.56115983    0.41149000    -0.08030000
opls_700-92    C    0.38625007    0.61374993    0.41874990    -0.03710000
opls_166-93    C    0.36820988    0.63177988    0.45441991    0.27660000
opls_145-94    C    0.40381027    0.59618973    0.48276994    -0.18050000
opls_700-95    C    0.45566988    0.54433012    0.47479003    0.00630000
opls_145-96    C    0.27987017    0.72012983    0.33038005    -0.11080000
opls_145-97    C    0.24861014    0.75138986    0.30043996    -0.09240000
opls_700-98    C    0.26829984    0.73170016    0.26557005    0.03340000
opls_700-99    C    0.32255023    0.67744977    0.26190994    0.13560000
opls_145-100    C    0.35357000    0.64643000    0.29218000    -0.16930000
opls_145-101    C    0.33271023    0.66728977    0.32630000    0.23790000
opls_142-102    C    0.85010020    0.85010020    0.88901003    0.09960000
opls_181-103    C    0.20021010    0.20021010    0.99687996    -0.17300000
opls_148-104    C    0.35012013    0.64987987    0.22708995    -0.36340000
opls_700-105    C    0.52753003    0.47246997    0.43997992    0.03760000
opls_145-106    C    0.56115983    0.43884017    0.41149000    -0.08030000
opls_700-107    C    0.61374993    0.38625007    0.41874990    -0.03710000
opls_166-108    C    0.63179012    0.36822012    0.45441991    0.27670000
opls_145-109    C    0.59618973    0.40381027    0.48276994    -0.18050000
opls_700-110    C    0.54433012    0.45566988    0.47479003    0.00630000
opls_145-111    C    0.72012983    0.27987017    0.33038005    -0.11080000
opls_145-112    C    0.75138986    0.24861014    0.30043996    -0.09240000
opls_700-113    C    0.73170016    0.26829984    0.26557005    0.03340000
opls_700-114    C    0.67744977    0.32255023    0.26190994    0.13560000
opls_145-115    C    0.64643000    0.35357000    0.29218000    -0.16930000
opls_145-116    C    0.66728977    0.33271023    0.32630000    0.23800000
opls_142-117    C    0.14989980    0.14989980    0.88901003    0.09950000
opls_181-118    C    0.79978990    0.79978990    0.99687996    -0.17300000
opls_148-119    C    0.64987987    0.35012013    0.22708995    -0.36360000
opls_701-120    C    0.50000000    0.50000000    0.50000000    -0.00740000
opls_701-121    C    0.00000000    0.00000000    0.00000000    -0.00740000
opls_750-122    N    0.13390023    0.86609977    0.14368009    -0.23970000
opls_750-123    N    0.86609977    0.13390023    0.14368009    -0.23970000
opls_750-124    N    0.63390023    0.63390023    0.64368009    -0.23980000
opls_750-125    N    0.36609977    0.36609977    0.64368009    -0.23980000
opls_750-126    N    0.36609977    0.63390023    0.35631991    -0.23980000
opls_750-127    N    0.63390023    0.36609977    0.35631991    -0.23980000
opls_750-128    N    0.86609977    0.86609977    0.85631991    -0.23980000
opls_750-129    N    0.13390023    0.13390023    0.85631991    -0.23980000
opls_179-130    O    0.81527986    0.18472014    0.03955011    -0.16290000
opls_179-131    O    0.18472014    0.81527986    0.03955011    -0.16280000
opls_179-132    O    0.31527986    0.31527986    0.53955011    -0.16290000
opls_179-133    O    0.68472014    0.68472014    0.53955011    -0.16290000
opls_179-134    O    0.68472014    0.31527986    0.46044989    -0.16290000
opls_179-135    O    0.31527986    0.68472014    0.46044989    -0.16290000
opls_179-136    O    0.18472014    0.18472014    0.96044989    -0.16290000
opls_179-137    O    0.81527986    0.81527986    0.96044989    -0.16290000
opls_144-138    H    0.19252007    0.80747993    0.10515006    0.02930000
opls_702-139    H    0.39101007    0.39479987    0.76788012    0.10090000
opls_702-140    H    0.37705974    0.30433012    0.78818003    0.10090000
opls_702-141    H    0.30335021    0.37229004    0.78929996    0.10090000
opls_185-142    H    0.80822012    0.14962021    0.98637000    0.06810000
opls_185-143    H    0.83726984    0.24460001    0.99325000    0.06810000
opls_185-144    H    0.74149006    0.21879976    0.00056010    0.06810000
opls_146-145    H    0.45397996    0.45397996    0.61703998    0.04970000
opls_146-146    H    0.38991973    0.38991973    0.48838987    0.04970000
opls_146-147    H    0.26234014    0.26234014    0.64176994    0.04960000
opls_146-148    H    0.20543985    0.20543985    0.69628008    0.04960000
opls_146-149    H    0.39678015    0.39678015    0.71083993    0.04960000
opls_144-150    H    0.80747993    0.19252007    0.10515006    0.02930000
opls_702-151    H    0.60898993    0.60520013    0.76788012    0.10100000
opls_702-152    H    0.62294026    0.69566988    0.78818003    0.10090000
opls_702-153    H    0.69664979    0.62770996    0.78929996    0.10100000
opls_185-154    H    0.19177988    0.85037979    0.98637000    0.06810000
opls_185-155    H    0.16273016    0.75539999    0.99325000    0.06810000
opls_185-156    H    0.25850994    0.78120024    0.00056010    0.06810000
opls_146-157    H    0.54602004    0.54602004    0.61703998    0.04960000
opls_146-158    H    0.61008027    0.61008027    0.48838987    0.04960000
opls_146-159    H    0.73765986    0.73765986    0.64176994    0.04960000
opls_146-160    H    0.79456015    0.79456015    0.69628008    0.04960000
opls_146-161    H    0.60321985    0.60321985    0.71083993    0.04960000
opls_144-162    H    0.69252007    0.69252007    0.60515006    0.02930000
opls_702-163    H    0.10520013    0.89101007    0.26788012    0.10090000
opls_702-164    H    0.19566988    0.87705974    0.28818003    0.10090000
opls_702-165    H    0.12770996    0.80335021    0.28929996    0.10090000
opls_185-166    H    0.35037979    0.30822012    0.48637000    0.06820000
opls_185-167    H    0.25539999    0.33726984    0.49325000    0.06810000
opls_185-168    H    0.28120024    0.24149006    0.50056010    0.06810000
opls_146-169    H    0.04602004    0.95397996    0.11703998    0.04960000
opls_146-170    H    0.11008027    0.88991973    0.98838987    0.04960000
opls_146-171    H    0.23765986    0.76234014    0.14176994    0.04960000
opls_146-172    H    0.29456015    0.70543985    0.19628008    0.04960000
opls_146-173    H    0.10321985    0.89678015    0.21083993    0.04960000
opls_144-174    H    0.30747993    0.30747993    0.60515006    0.02930000
opls_702-175    H    0.89479987    0.10898993    0.26788012    0.10090000
opls_702-176    H    0.80433012    0.12294026    0.28818003    0.10090000
opls_702-177    H    0.87229004    0.19664979    0.28929996    0.10090000
opls_185-178    H    0.64962021    0.69177988    0.48637000    0.06810000
opls_185-179    H    0.74460001    0.66273016    0.49325000    0.06810000
opls_185-180    H    0.71879976    0.75850994    0.50056010    0.06810000
opls_146-181    H    0.95397996    0.04602004    0.11703998    0.04970000
opls_146-182    H    0.88991973    0.11008027    0.98838987    0.04960000
opls_146-183    H    0.76234014    0.23765986    0.14176994    0.04960000
opls_146-184    H    0.70543985    0.29456015    0.19628008    0.04960000
opls_146-185    H    0.89678015    0.10321985    0.21083993    0.04960000
opls_144-186    H    0.30747993    0.69252007    0.39484994    0.02930000
opls_702-187    H    0.10898993    0.10520013    0.73211988    0.10090000
opls_702-188    H    0.12294026    0.19566988    0.71181997    0.10090000
opls_702-189    H    0.19664979    0.12770996    0.71070004    0.10090000
opls_185-190    H    0.69177988    0.35037979    0.51363000    0.06820000
opls_185-191    H    0.66273016    0.25539999    0.50675000    0.06810000
opls_185-192    H    0.75850994    0.28120024    0.49943990    0.06810000
opls_146-193    H    0.04602004    0.04602004    0.88296002    0.04960000
opls_146-194    H    0.11008027    0.11008027    0.01161013    0.04960000
opls_146-195    H    0.23765986    0.23765986    0.85823006    0.04960000
opls_146-196    H    0.29456015    0.29456015    0.80371992    0.04960000
opls_146-197    H    0.10321985    0.10321985    0.78916007    0.04960000
opls_144-198    H    0.69252007    0.30747993    0.39484994    0.02930000
opls_702-199    H    0.89101007    0.89479987    0.73211988    0.10090000
opls_702-200    H    0.87705974    0.80433012    0.71181997    0.10090000
opls_702-201    H    0.80335021    0.87229004    0.71070004    0.10090000
opls_185-202    H    0.30822012    0.64962021    0.51363000    0.06810000
opls_185-203    H    0.33726984    0.74460001    0.50675000    0.06820000
opls_185-204    H    0.24149006    0.71879976    0.49943990    0.06810000
opls_146-205    H    0.95397996    0.95397996    0.88296002    0.04960000
opls_146-206    H    0.88991973    0.88991973    0.01161013    0.04960000
opls_146-207    H    0.76234014    0.76234014    0.85823006    0.04960000
opls_146-208    H    0.70543985    0.70543985    0.80371992    0.04960000
opls_146-209    H    0.89678015    0.89678015    0.78916007    0.04960000
opls_144-210    H    0.80747993    0.80747993    0.89484994    0.02930000
opls_702-211    H    0.39479987    0.60898993    0.23211988    0.10090000
opls_702-212    H    0.30433012    0.62294026    0.21181997    0.10100000
opls_702-213    H    0.37229004    0.69664979    0.21070004    0.10090000
opls_185-214    H    0.14962021    0.19177988    0.01363000    0.06810000
opls_185-215    H    0.24460001    0.16273016    0.00675000    0.06810000
opls_185-216    H    0.21879976    0.25850994    0.99943990    0.06810000
opls_146-217    H    0.45397996    0.54602004    0.38296002    0.04960000
opls_146-218    H    0.38991973    0.61008027    0.51161013    0.04970000
opls_146-219    H    0.26234014    0.73765986    0.35823006    0.04960000
opls_146-220    H    0.20543985    0.79456015    0.30371992    0.04960000
opls_146-221    H    0.39678015    0.60321985    0.28916007    0.04960000
opls_144-222    H    0.19252007    0.19252007    0.89484994    0.02930000
opls_702-223    H    0.60520013    0.39101007    0.23211988    0.10090000
opls_702-224    H    0.69566988    0.37705974    0.21181997    0.10090000
opls_702-225    H    0.62770996    0.30335021    0.21070004    0.10100000
opls_185-226    H    0.85037979    0.80822012    0.01363000    0.06810000
opls_185-227    H    0.75539999    0.83726984    0.00675000    0.06810000
opls_185-228    H    0.78120024    0.74149006    0.99943990    0.06810000
opls_146-229    H    0.54602004    0.45397996    0.38296002    0.04960000
opls_146-230    H    0.61008027    0.38991973    0.51161013    0.04960000
opls_146-231    H    0.73765986    0.26234014    0.35823006    0.04960000
opls_146-232    H    0.79456015    0.20543985    0.30371992    0.04960000
opls_146-233    H    0.60321985    0.39678015    0.28916007    0.04960000
