#======================================================================
# Crystal Data Generated By AuToFF
#----------------------------------------------------------------------

data_AuToFF_phase_1

_cell_length_a                         49.2099
_cell_length_b                         49.2099
_cell_length_c                         3.5650
_cell_angle_alpha                      90.00
_cell_angle_beta                       90.00
_cell_angle_gamma                      120.00
_symmetry_space_group_name_H-M_alt     'P 1'
_symmetry_space_group_IT_number        1

loop_
_space_group_symop_operation_xyz
   'x, y, z'

loop_
   _atom_site_label
   _atom_site_type_symbol
   _atom_site_fract_x
   _atom_site_fract_y
   _atom_site_fract_z
   _atom_site_charge
opls_750-0    N    0.13470012    0.57163007    0.50000000    -0.33030000
opls_750-1    N    0.42836997    0.56306002    0.50000000    -0.33400000
opls_750-2    N    0.43693999    0.86531015    0.50000000    -0.33390000
opls_750-3    N    0.85902991    0.38643997    0.50000000    -0.32990000
opls_750-4    N    0.61355997    0.47259006    0.50000000    -0.32990000
opls_750-5    N    0.52740991    0.14096997    0.50000000    -0.32470000
opls_750-6    N    0.00735999    0.48426004    0.50000000    -0.33240000
opls_750-7    N    0.51574004    0.52311002    0.50000000    -0.32990000
opls_750-8    N    0.47688998    0.99264003    0.50000000    -0.32980000
opls_641-9    N    0.35916002    0.66383994    0.50000000    -0.58530000
opls_641-10    N    0.33615997    0.69532994    0.50000000    -0.59180000
opls_641-11    N    0.30468006    0.64083997    0.50000000    -0.58550000
opls_641-12    N    0.64562001    0.34321006    0.50000000    -0.59300000
opls_641-13    N    0.65679998    0.30240993    0.50000000    -0.59300000
opls_641-14    N    0.69758997    0.35438001    0.50000000    -0.59300000
opls_142-15    C    0.99083998    0.45249011    0.50000000    0.09900000
opls_142-16    C    0.54750997    0.53834008    0.50000000    0.09990000
opls_142-17    C    0.46166012    0.00917005    0.50000000    0.09900000
opls_142-18    C    0.15130994    0.60340000    0.50000000    0.09990000
opls_142-19    C    0.39660002    0.54790997    0.50000000    0.09990000
opls_142-20    C    0.45209004    0.84869003    0.50000000    0.09990000
opls_145-21    C    0.10340002    0.55129007    0.50000000    0.19370000
opls_145-22    C    0.44871006    0.55210993    0.50000000    0.19380000
opls_145-23    C    0.44788992    0.89660000    0.50000000    0.19370000
opls_145-24    C    0.07998005    0.55991010    0.50000000    -0.22030000
opls_145-25    C    0.44008995    0.52008001    0.50000000    -0.22030000
opls_145-26    C    0.47992997    0.92001998    0.50000000    -0.22030000
opls_145-27    C    0.04799014    0.53670013    0.50000000    -0.22120000
opls_145-28    C    0.46330004    0.51128000    0.50000000    -0.22120000
opls_145-29    C    0.48871993    0.95201002    0.50000000    -0.22120000
opls_145-30    C    0.03867004    0.50460004    0.50000000    0.19370000
opls_145-31    C    0.49540000    0.53406996    0.50000000    0.19370000
opls_145-32    C    0.46592996    0.96133000    0.50000000    0.19370000
opls_145-33    C    0.06210014    0.49599010    0.50000000    -0.22030000
opls_145-34    C    0.50400992    0.56610997    0.50000000    -0.22030000
opls_145-35    C    0.43389006    0.93790016    0.50000000    -0.22030000
opls_145-36    C    0.09409008    0.51918999    0.50000000    -0.22120000
opls_145-37    C    0.48081014    0.57490012    0.50000000    -0.22120000
opls_145-38    C    0.42510010    0.90591013    0.50000000    -0.22120000
opls_142-39    C    0.83672992    0.35569005    0.50000000    0.09990000
opls_142-40    C    0.64431008    0.48103997    0.50000000    0.09990000
opls_142-41    C    0.51896000    0.16326998    0.50000000    0.09900000
opls_145-42    C    0.89075008    0.40078002    0.50000000    0.19380000
opls_145-43    C    0.59922001    0.48996997    0.50000000    0.19380000
opls_145-44    C    0.51004004    0.10926010    0.50000000    0.19380000
opls_145-45    C    0.90831008    0.38523013    0.50000000    -0.22030000
opls_145-46    C    0.61477010    0.52309007    0.50000000    -0.22030000
opls_145-47    C    0.47691004    0.09168989    0.50000000    -0.22030000
opls_145-48    C    0.94136996    0.40243006    0.50000000    -0.19000000
opls_145-49    C    0.59757007    0.53894008    0.50000000    -0.18970000
opls_145-50    C    0.46105993    0.05863995    0.50000000    -0.19000000
opls_700-51    C    0.95776012    0.43565012    0.50000000    0.04750000
opls_700-52    C    0.56435004    0.52210995    0.50000000    0.04670000
opls_700-53    C    0.47789005    0.04223993    0.50000000    0.04770000
opls_145-54    C    0.93996993    0.45103998    0.50000000    -0.18970000
opls_145-55    C    0.54896000    0.48894010    0.50000000    -0.18970000
opls_145-56    C    0.51106008    0.06003001    0.50000000    -0.18970000
opls_145-57    C    0.90694013    0.43379007    0.50000000    -0.22120000
opls_145-58    C    0.56622002    0.47314993    0.50000000    -0.22120000
opls_145-59    C    0.52685002    0.09306000    0.50000000    -0.22120000
opls_642-60    C    0.36186993    0.69236000    0.50000000    0.50660000
opls_642-61    C    0.30764007    0.66950012    0.50000000    0.50650000
opls_642-62    C    0.33050007    0.63814011    0.50000000    0.50650000
opls_642-63    C    0.63589010    0.31240007    0.50000000    0.50660000
opls_642-64    C    0.68759996    0.32349000    0.50000000    0.50660000
opls_642-65    C    0.67650994    0.36410993    0.50000000    0.50650000
opls_166-66    C    0.40374000    0.74854999    0.50000000    0.23310000
opls_166-67    C    0.25145001    0.65519011    0.50000000    0.23310000
opls_166-68    C    0.34481010    0.59626013    0.50000000    0.23310000
opls_145-69    C    0.23526998    0.62208995    0.50000000    -0.24340000
opls_145-70    C    0.37791010    0.61317004    0.50000000    -0.24340000
opls_145-71    C    0.38683008    0.76474000    0.50000000    -0.24340000
opls_145-72    C    0.20221007    0.60485013    0.50000000    -0.19000000
opls_145-73    C    0.39515010    0.59736016    0.50000000    -0.19000000
opls_145-74    C    0.40264007    0.79779018    0.50000000    -0.19000000
opls_700-75    C    0.18439003    0.62020995    0.50000000    0.04750000
opls_700-76    C    0.37979005    0.56417999    0.50000000    0.04770000
opls_700-77    C    0.43583008    0.81561005    0.50000000    0.04770000
opls_145-78    C    0.20073995    0.65343001    0.50000000    -0.18970000
opls_145-79    C    0.34658011    0.54732006    0.50000000    -0.18960000
opls_145-80    C    0.45268010    0.79926001    0.50000000    -0.18970000
opls_145-81    C    0.23380005    0.67048001    0.50000000    -0.24340000
opls_145-82    C    0.32952009    0.56332001    0.50000000    -0.24330000
opls_145-83    C    0.43668006    0.76619998    0.50000000    -0.24330000
opls_166-84    C    0.58588995    0.26127003    0.50000000    0.24130000
opls_166-85    C    0.73873002    0.32462007    0.50000000    0.23790000
opls_166-86    C    0.67538014    0.41411014    0.50000000    0.23800000
opls_145-87    C    0.76103004    0.35695997    0.50000000    -0.24340000
opls_145-88    C    0.64303997    0.40407002    0.50000000    -0.24340000
opls_145-89    C    0.59592996    0.23898011    0.50000000    -0.24340000
opls_145-90    C    0.79340999    0.36737998    0.50000000    -0.19000000
opls_145-91    C    0.63261997    0.42604011    0.50000000    -0.19000000
opls_145-92    C    0.57396005    0.20659000    0.50000000    -0.18990000
opls_700-93    C    0.80444005    0.34575013    0.50000000    0.04750000
opls_700-94    C    0.65425009    0.45868012    0.50000000    0.04750000
opls_700-95    C    0.54132008    0.19556013    0.50000000    0.04770000
opls_145-96    C    0.78197006    0.31332998    0.50000000    -0.18970000
opls_145-97    C    0.68667003    0.46863999    0.50000000    -0.18970000
opls_145-98    C    0.53137007    0.21803003    0.50000000    -0.19000000
opls_145-99    C    0.74962989    0.30311997    0.50000000    -0.24340000
opls_145-100    C    0.69688007    0.44651010    0.50000000    -0.24340000
opls_145-101    C    0.55349996    0.25038001    0.50000000    -0.24340000
opls_144-102    H    0.00252011    0.44022013    0.50000000    0.10520000
opls_144-103    H    0.55979003    0.56231008    0.50000000    0.10560000
opls_144-104    H    0.43769015    0.99748011    0.50000000    0.10560000
opls_144-105    H    0.13969009    0.61574014    0.50000000    0.10520000
opls_144-106    H    0.38427010    0.52396015    0.50000000    0.10610000
opls_144-107    H    0.47604009    0.86031004    0.50000000    0.10610000
opls_146-108    H    0.08590007    0.58293001    0.50000000    0.21670000
opls_146-109    H    0.41706994    0.50296994    0.50000000    0.21670000
opls_146-110    H    0.49702999    0.91410005    0.50000000    0.21670000
opls_146-111    H    0.11082001    0.51269000    0.50000000    0.21660000
opls_146-112    H    0.48731007    0.59813004    0.50000000    0.21660000
opls_146-113    H    0.40186992    0.88917996    0.50000000    0.21660000
opls_146-114    H    0.03125008    0.54319002    0.50000000    0.21660000
opls_146-115    H    0.45680992    0.48805993    0.50000000    0.21660000
opls_146-116    H    0.51194000    0.96875004    0.50000000    0.21660000
opls_146-117    H    0.05621004    0.47298004    0.50000000    0.21680000
opls_146-118    H    0.52701998    0.58323998    0.50000000    0.21670000
opls_146-119    H    0.41675999    0.94379006    0.50000000    0.21670000
opls_144-120    H    0.84330996    0.33901995    0.50000000    0.10560000
opls_144-121    H    0.66098008    0.50427998    0.50000000    0.10590000
opls_144-122    H    0.49572012    0.15670007    0.50000000    0.10590000
opls_146-123    H    0.89727999    0.36135000    0.50000000    0.21670000
opls_146-124    H    0.63864997    0.53593001    0.50000000    0.21670000
opls_146-125    H    0.46407004    0.10271999    0.50000000    0.21670000
opls_146-126    H    0.89448999    0.44531011    0.50000000    0.21660000
opls_146-127    H    0.55469001    0.44917993    0.50000000    0.21660000
opls_146-128    H    0.55082000    0.10550996    0.50000000    0.21660000
opls_146-129    H    0.95335015    0.39040013    0.50000000    0.21660000
opls_146-130    H    0.60960002    0.56294997    0.50000000    0.21660000
opls_146-131    H    0.43705004    0.04664991    0.50000000    0.21660000
opls_146-132    H    0.95110994    0.47502007    0.50000000    0.21670000
opls_146-133    H    0.52497998    0.47609007    0.50000000    0.21660000
opls_146-134    H    0.52390999    0.04889009    0.50000000    0.21660000
opls_146-135    H    0.24729992    0.61028997    0.50000000    0.21680000
opls_146-136    H    0.38971001    0.63701005    0.50000000    0.21680000
opls_146-137    H    0.36299008    0.75269998    0.50000000    0.21680000
opls_146-138    H    0.19112003    0.58085009    0.50000000    0.21660000
opls_146-139    H    0.41915008    0.61027003    0.50000000    0.21660000
opls_146-140    H    0.38973001    0.80888011    0.50000000    0.21660000
opls_146-141    H    0.18884015    0.66553011    0.50000000    0.21660000
opls_146-142    H    0.33446999    0.52330994    0.50000000    0.21660000
opls_146-143    H    0.47669006    0.81115995    0.50000000    0.21660000
opls_146-144    H    0.24548002    0.69443007    0.50000000    0.21660000
opls_146-145    H    0.30556998    0.55105003    0.50000000    0.21660000
opls_146-146    H    0.44895012    0.75452014    0.50000000    0.21660000
opls_146-147    H    0.75395003    0.37313003    0.50000000    0.21690000
opls_146-148    H    0.62686990    0.38081992    0.50000000    0.21690000
opls_146-149    H    0.61918007    0.24605005    0.50000000    0.21690000
opls_146-150    H    0.80901994    0.39099003    0.50000000    0.21660000
opls_146-151    H    0.60901005    0.41804002    0.50000000    0.21660000
opls_146-152    H    0.58196997    0.19098004    0.50000000    0.21660000
opls_146-153    H    0.78884997    0.29684994    0.50000000    0.21660000
opls_146-154    H    0.70315016    0.49200014    0.50000000    0.21660000
opls_146-155    H    0.50799987    0.21114991    0.50000000    0.21670000
opls_146-156    H    0.73351998    0.27971993    0.50000000    0.21660000
opls_146-157    H    0.72029007    0.45381000    0.50000000    0.21660000
opls_146-158    H    0.54619000    0.26647992    0.50000000    0.21660000
opls_180-159    O    0.39151000    0.71689996    0.50000000    -0.34110000
opls_180-160    O    0.28310008    0.67461005    0.50000000    -0.34100000
opls_180-161    O    0.32538993    0.60848999    0.50000000    -0.34110000
opls_180-162    O    0.60446991    0.29303996    0.50000000    -0.34110000
opls_180-163    O    0.70695999    0.31143003    0.50000000    -0.34110000
opls_180-164    O    0.68856990    0.39553000    0.50000000    -0.34110000
