#======================================================================
# Crystal Data Generated By AuToFF
#----------------------------------------------------------------------

data_AuToFF_phase_1

_cell_length_a                         31.8578
_cell_length_b                         31.8578
_cell_length_c                         3.6000
_cell_angle_alpha                      90.00
_cell_angle_beta                       90.00
_cell_angle_gamma                      60.00
_symmetry_space_group_name_H-M_alt     'P 1'
_symmetry_space_group_IT_number        1

loop_
_space_group_symop_operation_xyz
   'x, y, z'

loop_
   _atom_site_label
   _atom_site_type_symbol
   _atom_site_fract_x
   _atom_site_fract_y
   _atom_site_fract_z
   _atom_site_charge
opls_238-0    N    0.61593995    0.58442003    0.38888889    -0.30900000
opls_238-1    N    0.38406005    0.41557997    0.38888889    -0.30900000
opls_750-2    N    0.49375991    0.52058996    0.38888889    -0.16060000
opls_750-3    N    0.50624003    0.47942019    0.38888889    -0.16070000
opls_238-4    N    0.79963998    0.61594017    0.38888889    -0.30900000
opls_238-5    N    0.20035984    0.38406019    0.38888889    -0.30900000
opls_750-6    N    0.98564982    0.49377013    0.38888889    -0.16070000
opls_750-7    N    0.01435012    0.50624002    0.38888889    -0.16070000
opls_238-8    N    0.58441989    0.79964016    0.38888889    -0.30900000
opls_238-9    N    0.41557993    0.20036021    0.38888889    -0.30900000
opls_750-10    N    0.52058990    0.98565006    0.38888889    -0.16070000
opls_750-11    N    0.47942015    0.01434994    0.38888889    -0.16060000
opls_142-12    C    0.60500984    0.63032020    0.38888889    0.09150000
opls_145-13    C    0.58413013    0.56936004    0.38888889    0.14530000
opls_145-14    C    0.53788005    0.59853003    0.38888889    -0.20930000
opls_145-15    C    0.50860995    0.58194012    0.38888889    -0.20790000
opls_145-16    C    0.52467999    0.53632013    0.38888889    0.08930000
opls_145-17    C    0.57057990    0.50708019    0.38888889    -0.20800000
opls_145-18    C    0.59992992    0.52351026    0.38888889    -0.20970000
opls_142-19    C    0.39498998    0.36968016    0.38888889    0.09150000
opls_145-20    C    0.41586987    0.43063996    0.38888889    0.14530000
opls_145-21    C    0.46211995    0.40146997    0.38888889    -0.20930000
opls_145-22    C    0.49139005    0.41805988    0.38888889    -0.20790000
opls_145-23    C    0.47531983    0.46368023    0.38888889    0.08810000
opls_145-24    C    0.42941992    0.49292017    0.38888889    -0.20800000
opls_145-25    C    0.40007003    0.47649989    0.38888889    -0.20970000
opls_142-26    C    0.76467008    0.60500999    0.38888889    0.09150000
opls_145-27    C    0.84650982    0.58413007    0.38888889    0.14530000
opls_145-28    C    0.86358980    0.53788013    0.38888889    -0.20930000
opls_145-29    C    0.90944982    0.50861011    0.38888889    -0.20790000
opls_145-30    C    0.93901011    0.52467990    0.38888889    0.08930000
opls_145-31    C    0.92234012    0.57058007    0.38888889    -0.20800000
opls_145-32    C    0.87655996    0.59993019    0.38888889    -0.20970000
opls_142-33    C    0.23532992    0.39499001    0.38888889    0.09150000
opls_145-34    C    0.15349018    0.41586993    0.38888889    0.14530000
opls_145-35    C    0.13641002    0.46212023    0.38888889    -0.20930000
opls_145-36    C    0.09055000    0.49139025    0.38888889    -0.20790000
opls_145-37    C    0.06099993    0.47532010    0.38888889    0.08930000
opls_145-38    C    0.07765988    0.42941993    0.38888889    -0.20800000
opls_145-39    C    0.12343986    0.40007017    0.38888889    -0.20970000
opls_142-40    C    0.63031990    0.76467017    0.38888889    0.09150000
opls_145-41    C    0.56935987    0.84651025    0.38888889    0.14530000
opls_145-42    C    0.59852997    0.86359020    0.38888889    -0.20930000
opls_145-43    C    0.58194005    0.90945013    0.38888889    -0.20790000
opls_145-44    C    0.53631989    0.93901012    0.38888889    0.08930000
opls_145-45    C    0.50707979    0.92234011    0.38888889    -0.20800000
opls_145-46    C    0.52350975    0.87656028    0.38888889    -0.20970000
opls_142-47    C    0.36967992    0.23533019    0.38888889    0.09150000
opls_145-48    C    0.43063995    0.15349011    0.38888889    0.14530000
opls_145-49    C    0.40146985    0.13641016    0.38888889    -0.20930000
opls_145-50    C    0.41805990    0.09056001    0.38888889    -0.20780000
opls_145-51    C    0.46368006    0.06100003    0.38888889    0.08930000
opls_145-52    C    0.49292021    0.07765989    0.38888889    -0.20800000
opls_145-53    C    0.47650011    0.12344009    0.38888889    -0.20970000
opls_280-54    C    0.68673991    0.61626022    0.38888889    0.24660000
opls_145-55    C    0.63561001    0.64614026    0.38888889    -0.10880000
opls_280-56    C    0.61625984    0.69700025    0.38888889    0.24660000
opls_145-57    C    0.64613984    0.71825024    0.38888889    -0.10880000
opls_280-58    C    0.69699989    0.68674025    0.38888889    0.24660000
opls_145-59    C    0.71824979    0.63561022    0.38888889    -0.10880000
opls_280-60    C    0.31325991    0.38374014    0.38888889    0.24660000
opls_145-61    C    0.36438981    0.35386011    0.38888889    -0.10880000
opls_280-62    C    0.38374011    0.30300990    0.38888889    0.24660000
opls_145-63    C    0.35385998    0.28175012    0.38888889    -0.10880000
opls_280-64    C    0.30300997    0.31326011    0.38888889    0.24660000
opls_145-65    C    0.28175002    0.36439014    0.38888889    -0.10880000
opls_144-66    H    0.57031997    0.65510992    0.38888889    0.10390000
opls_146-67    H    0.52353997    0.63398027    0.38888889    0.22050000
opls_910-68    H    0.64880980    0.55916021    0.38888889    0.26460000
opls_146-69    H    0.63523981    0.50035013    0.38888889    0.22100000
opls_146-70    H    0.47319004    0.60458012    0.38888889    0.22100000
opls_146-71    H    0.58344998    0.47167018    0.38888889    0.22100000
opls_144-72    H    0.42967998    0.34490023    0.38888889    0.10390000
opls_146-73    H    0.47645985    0.36602010    0.38888889    0.22050000
opls_910-74    H    0.35119001    0.44084016    0.38888889    0.26460000
opls_146-75    H    0.36476001    0.49965023    0.38888889    0.22100000
opls_146-76    H    0.52680991    0.39543003    0.38888889    0.22100000
opls_146-77    H    0.41656001    0.52833997    0.38888889    0.22100000
opls_144-78    H    0.77457975    0.57032019    0.38888889    0.10380000
opls_146-79    H    0.84248015    0.52353998    0.38888889    0.22050000
opls_910-80    H    0.79202986    0.64881010    0.38888889    0.26460000
opls_146-81    H    0.86441007    0.63524016    0.38888889    0.22100000
opls_146-82    H    0.92222981    0.47320010    0.38888889    0.22100000
opls_146-83    H    0.94488984    0.58345010    0.38888889    0.22110000
opls_144-84    H    0.22542007    0.42968018    0.38888889    0.10380000
opls_146-85    H    0.15751985    0.47646002    0.38888889    0.22050000
opls_910-86    H    0.20797014    0.35118990    0.38888889    0.26460000
opls_146-87    H    0.13558975    0.36476020    0.38888889    0.22100000
opls_146-88    H    0.07776982    0.52681004    0.38888889    0.22100000
opls_146-89    H    0.05511011    0.41656004    0.38888889    0.22100000
opls_144-90    H    0.65510996    0.77458004    0.38888889    0.10380000
opls_146-91    H    0.63398001    0.84248012    0.38888889    0.22050000
opls_910-92    H    0.55915984    0.79203006    0.38888889    0.26460000
opls_146-93    H    0.50034994    0.86441007    0.38888889    0.22100000
opls_146-94    H    0.60457991    0.92223028    0.38888889    0.22100000
opls_146-95    H    0.47166999    0.94489022    0.38888889    0.22100000
opls_144-96    H    0.34490009    0.22541996    0.38888889    0.10380000
opls_146-97    H    0.36601999    0.15751988    0.38888889    0.22050000
opls_910-98    H    0.44084016    0.20796994    0.38888889    0.26460000
opls_146-99    H    0.49965006    0.13558993    0.38888889    0.22100000
opls_146-100    H    0.39542995    0.07777008    0.38888889    0.22100000
opls_146-101    H    0.52833988    0.05511014    0.38888889    0.22100000
opls_281-102    O    0.70403988    0.57461020    0.38888889    -0.41110000
opls_281-103    O    0.57460994    0.72134996    0.38888889    -0.41110000
opls_281-104    O    0.72135000    0.70404021    0.38888889    -0.41110000
opls_281-105    O    0.29595994    0.42539016    0.38888889    -0.41110000
opls_281-106    O    0.42539006    0.27865004    0.38888889    -0.41110000
opls_281-107    O    0.27864982    0.29596015    0.38888889    -0.41110000
