#======================================================================
# Crystal Data Generated By AuToFF
#----------------------------------------------------------------------

data_AuToFF_phase_1

_cell_length_a                         16.2846
_cell_length_b                         16.0675
_cell_length_c                         7.8039
_cell_angle_alpha                      91.11
_cell_angle_beta                       91.38
_cell_angle_gamma                      119.32
_symmetry_space_group_name_H-M_alt     'P 1'
_symmetry_space_group_IT_number        1

loop_
_space_group_symop_operation_xyz
   'x, y, z'

loop_
   _atom_site_label
   _atom_site_type_symbol
   _atom_site_fract_x
   _atom_site_fract_y
   _atom_site_fract_z
   _atom_site_charge
opls_145-0    C    0.78993995    0.29937974    0.08519941    0.15060000
opls_145-1    C    0.86081012    0.29483041    0.99833005    -0.21260000
opls_700-2    C    0.93626041    0.37780001    0.92822045    -0.00320000
opls_700-3    C    0.93494003    0.46516019    0.94338979    0.03090000
opls_145-4    C    0.86046974    0.46695984    0.02972046    -0.21100000
opls_916-5    C    0.78937011    0.38535004    0.09774967    0.13250000
opls_700-6    C    0.01246032    0.55006049    0.88936017    0.03150000
opls_700-7    C    0.09780996    0.55154992    0.84920960    0.02930000
opls_700-8    C    0.10244038    0.46617057    0.85278036    0.02110000
opls_700-9    C    0.01841036    0.37821012    0.87180007    0.03340000
opls_522-10    C    0.02323042    0.29369998    0.86167008    -0.20680000
opls_521-11    C    0.10840996    0.29599000    0.88338966    0.12860000
opls_521-12    C    0.19244996    0.38268010    0.88849955    0.14100000
opls_522-13    C    0.18981018    0.46677013    0.86213053    -0.21550000
opls_522-14    C    0.17815007    0.64033030    0.82128991    -0.20780000
opls_521-15    C    0.17854992    0.72438009    0.86800998    0.13410000
opls_521-16    C    0.09403983    0.72189988    0.90447051    0.13320000
opls_522-17    C    0.01072051    0.63652036    0.89351965    -0.20380000
opls_521-18    C    0.27555032    0.30195020    0.01248998    0.12350000
opls_521-19    C    0.19055012    0.21655026    0.00915008    0.13790000
opls_522-20    C    0.18582001    0.13506997    0.07250037    -0.20160000
opls_700-21    C    0.26734005    0.13413034    0.13226065    0.03140000
opls_700-22    C    0.35393041    0.22095026    0.14205973    0.02340000
opls_522-23    C    0.35642009    0.30466006    0.08122976    -0.18450000
opls_700-24    C    0.43745036    0.21906016    0.18735996    0.02900000
opls_700-25    C    0.43812004    0.13088999    0.17926032    0.03170000
opls_700-26    C    0.35319033    0.04564018    0.13955994    0.03180000
opls_700-27    C    0.26703031    0.04671038    0.14540989    0.02710000
opls_522-28    C    0.18267991    0.95985009    0.12630938    -0.20270000
opls_521-29    C    0.18198000    0.88400991    0.03945028    0.16170000
opls_521-30    C    0.26686005    0.88679998    0.00456991    0.12450000
opls_522-31    C    0.35141995    0.96271961    0.07044051    -0.22680000
opls_142-32    C    0.52508041    0.13224018    0.19440016    -0.07630000
opls_261-33    C    0.60864991    0.21837008    0.18994953    -0.08060000
opls_141-34    C    0.60749026    0.30453989    0.20370031    0.18650000
opls_142-35    C    0.52284002    0.30404017    0.21838995    -0.20140000
opls_700-36    C    0.41094037    0.22133034    0.66931054    0.06010000
opls_261-37    C    0.40741001    0.30614992    0.63685044    -0.01120000
opls_142-38    C    0.49783054    0.22719039    0.71254064    -0.20060000
opls_528-39    C    0.58033028    0.31323014    0.70446025    0.14780000
opls_528-40    C    0.57650056    0.39758042    0.68466970    0.13120000
opls_142-41    C    0.49034005    0.39460037    0.66031052    -0.19750000
opls_521-42    C    0.74011980    0.47825985    0.59673963    0.17110000
opls_521-43    C    0.74267999    0.39321038    0.60697992    0.13200000
opls_522-44    C    0.81469009    0.38439999    0.53221063    -0.20460000
opls_700-45    C    0.88757000    0.46160978    0.44905953    0.01870000
opls_700-46    C    0.88728018    0.54949045    0.44732032    0.03060000
opls_522-47    C    0.81098027    0.55505994    0.51832005    -0.19940000
opls_700-48    C    0.96823035    0.63096042    0.39688969    0.02750000
opls_700-49    C    0.05280000    0.62837034    0.36945996    0.02440000
opls_700-50    C    0.04858018    0.53916016    0.34451976    0.02280000
opls_700-51    C    0.96391026    0.45428014    0.37932061    0.02050000
opls_522-52    C    0.96031012    0.36569981    0.35424958    -0.19940000
opls_521-53    C    0.04180999    0.36161021    0.32675957    0.13080000
opls_521-54    C    0.12631992    0.44505987    0.30096003    0.13140000
opls_522-55    C    0.12802031    0.53212023    0.29641962    -0.20970000
opls_522-56    C    0.13951997    0.71494972    0.38743050    -0.21270000
opls_521-57    C    0.14037017    0.79855993    0.44093040    0.12900000
opls_521-58    C    0.05538986    0.79955974    0.45027031    0.13990000
opls_522-59    C    0.97174975    0.71948998    0.40471998    -0.22870000
opls_528-60    C    0.21443025    0.36536993    0.39394997    0.13170000
opls_528-61    C    0.12974027    0.28178044    0.41616977    0.15050000
opls_142-62    C    0.12891001    0.20746009    0.50296987    -0.20850000
opls_700-63    C    0.21340035    0.21413041    0.56903029    0.09070000
opls_261-64    C    0.29880021    0.30132020    0.55737015    -0.00190000
opls_142-65    C    0.29826996    0.37551006    0.46444948    -0.22120000
opls_521-66    C    0.13776034    0.96127021    0.58250018    0.15970000
opls_521-67    C    0.22414981    0.96368011    0.56548005    0.13340000
opls_522-68    C    0.30718018    0.04812029    0.60416974    -0.19480000
opls_700-69    C    0.30451043    0.13367052    0.63462000    0.01850000
opls_700-70    C    0.21667011    0.13121992    0.62117961    0.03220000
opls_522-71    C    0.13472006    0.04300024    0.62715012    -0.20680000
opls_238-72    N    0.27865026    0.38491010    0.94046033    -0.38770000
opls_238-73    N    0.10858022    0.21105029    0.92985064    -0.37760000
opls_750-74    N    0.71726008    0.21608034    0.15968012    -0.25560000
opls_238-75    N    0.71504008    0.38869988    0.18955064    -0.33400000
opls_238-76    N    0.09503054    0.80475039    0.97921030    -0.38280000
opls_238-77    N    0.26538033    0.81127008    0.90246965    -0.38280000
opls_238-78    N    0.66169038    0.48423027    0.66116986    -0.38570000
opls_238-79    N    0.66818985    0.31441995    0.68839950    -0.38290000
opls_238-80    N    0.21240006    0.44149035    0.30541964    -0.38280000
opls_238-81    N    0.04342042    0.27490043    0.35345052    -0.38380000
opls_238-82    N    0.05276978    0.87874979    0.52794982    -0.37950000
opls_238-83    N    0.22639983    0.88166983    0.49619003    -0.38490000
opls_146-84    H    0.85724000    0.22631017    0.99605985    0.09370000
opls_146-85    H    0.85866974    0.53164989    0.05798003    0.10380000
opls_525-86    H    0.96182044    0.22461031    0.85898046    0.08690000
opls_525-87    H    0.25620019    0.53211022    0.87271072    0.09580000
opls_525-88    H    0.24255002    0.64581018    0.77674001    0.11900000
opls_525-89    H    0.94696045    0.63973031    0.90601989    0.09250000
opls_525-90    H    0.11891020    0.07117999    0.05304971    0.09260000
opls_525-91    H    0.42132007    0.37026984    0.06998006    0.09370000
opls_525-92    H    0.11636013    0.95309027    0.16136033    0.09370000
opls_525-93    H    0.41458005    0.95888964    0.05111041    0.09370000
opls_144-94    H    0.52985996    0.06768982    0.19322017    0.09860000
opls_144-95    H    0.52516989    0.37145977    0.23661060    0.09250000
opls_144-96    H    0.49036014    0.46142987    0.64793982    0.11620000
opls_525-97    H    0.81418018    0.31817030    0.54795970    0.08690000
opls_525-98    H    0.80521993    0.61872006    0.52186003    0.10370000
opls_525-99    H    0.89625011    0.29898002    0.36514016    0.08910000
opls_525-100    H    0.19365001    0.59340993    0.26563973    0.09860000
opls_525-101    H    0.20680011    0.71753020    0.38287983    0.11300000
opls_525-102    H    0.90979015    0.72718985    0.39991022    0.09140000
opls_144-103    H    0.06128031    0.14443987    0.51033970    0.09260000
opls_144-104    H    0.36247997    0.43943974    0.43765976    0.09690000
opls_525-105    H    0.37247035    0.04770046    0.58699954    0.10110000
opls_525-106    H    0.06666058    0.03687035    0.64362002    0.09260000
opls_910-107    H    0.34244991    0.44883991    0.93954968    0.25870000
opls_910-108    H    0.04565026    0.14614053    0.92592973    0.25840000
MOF2_H_-109    H    0.71953013    0.15239002    0.15294004    0.25870000
opls_910-110    H    0.71601999    0.45376980    0.20720951    0.25860000
opls_910-111    H    0.03168024    0.80422048    0.00033989    0.25870000
opls_910-112    H    0.32739028    0.81918020    0.85241995    0.26540000
opls_910-113    H    0.66113989    0.54895995    0.66207025    0.25870000
opls_910-114    H    0.67272034    0.25272002    0.70861973    0.25860000
opls_910-115    H    0.27501981    0.50021017    0.27019040    0.25870000
opls_910-116    H    0.98027004    0.21033005    0.35811021    0.25870000
opls_910-117    H    0.98814999    0.87615044    0.54534961    0.25860000
opls_910-118    H    0.29084997    0.88367003    0.48125028    0.25840000
opls_144-119    H    0.50338033    0.16505002    0.74179038    0.09370000
