#======================================================================
# Crystal Data Generated By AuToFF
#----------------------------------------------------------------------

data_AuToFF_phase_1

_cell_length_a                         37.9761
_cell_length_b                         3.6924
_cell_length_c                         37.5870
_cell_angle_alpha                      90.00
_cell_angle_beta                       120.00
_cell_angle_gamma                      90.00
_symmetry_space_group_name_H-M_alt     'P 1'
_symmetry_space_group_IT_number        1

loop_
_space_group_symop_operation_xyz
   'x, y, z'

loop_
   _atom_site_label
   _atom_site_type_symbol
   _atom_site_fract_x
   _atom_site_fract_y
   _atom_site_fract_z
   _atom_site_charge
opls_700-0    C    0.47567991    0.50000000    0.51893995    0.06330000
opls_145-1    C    0.45010002    0.50000000    0.53885989    0.03190000
opls_145-2    C    0.41062993    0.50000000    0.51895992    -0.22130000
opls_145-3    C    0.38650009    0.50000000    0.53731003    -0.22130000
opls_145-4    C    0.40123004    0.50000000    0.57631001    0.06740000
opls_145-5    C    0.44094986    0.50000000    0.59670981    -0.22090000
opls_145-6    C    0.46479003    0.50000000    0.57801009    -0.22130000
opls_142-7    C    0.37411991    0.50000000    0.59414985    -0.22060000
opls_142-8    C    0.38203980    0.50000000    0.62868979    -0.21990000
opls_700-9    C    0.35417992    0.50000000    0.64578988    0.00030000
opls_700-10    C    0.37077002    0.50000000    0.68819003    -0.07910000
opls_521-11    C    0.34557979    0.50000000    0.70577980    0.16850000
opls_521-12    C    0.28748998    0.50000000    0.63969980    0.19700000
opls_700-13    C    0.31207998    0.50000000    0.62133985    -0.07890000
opls_142-14    C    0.36141987    0.50000000    0.75055989    -0.22110000
opls_142-15    C    0.24283009    0.50000000    0.61456993    -0.18710000
opls_145-16    C    0.51838992    0.50000000    0.54271995    -0.13290000
opls_145-17    C    0.54229001    0.50000000    0.52409981    -0.13050000
opls_423-18    C    0.41262005    0.50000000    0.71262991    0.28260000
opls_423-19    C    0.29443986    0.50000000    0.57830993    0.28610000
opls_142-20    C    0.39625985    0.50000000    0.77808997    -0.22060000
opls_145-21    C    0.41573996    0.50000000    0.82338002    0.06470000
opls_142-22    C    0.21842992    0.50000000    0.63061998    -0.14100000
opls_145-23    C    0.17377982    0.50000000    0.60448984    0.06560000
opls_145-24    C    0.45513996    0.50000000    0.84710995    -0.22130000
opls_145-25    C    0.47538990    0.50000000    0.88989994    -0.22250000
opls_145-26    C    0.45703010    0.50000000    0.91041003    0.03190000
opls_145-27    C    0.41744002    0.50000000    0.88650991    -0.22130000
opls_145-28    C    0.39688994    0.50000000    0.84355986    -0.22090000
opls_145-29    C    0.14835990    0.50000000    0.61850003    -0.22090000
opls_145-30    C    0.10605004    0.50000000    0.59337999    -0.22130000
opls_145-31    C    0.08808005    0.50000000    0.55389984    0.03190000
opls_145-32    C    0.11384987    0.50000000    0.54084998    -0.22250000
opls_145-33    C    0.15605991    0.50000000    0.56566988    -0.22250000
opls_700-34    C    0.47899996    0.50000000    0.95632002    0.05830000
opls_700-35    C    0.04291001    0.50000000    0.52631999    0.06280000
opls_145-36    C    0.45756989    0.50000000    0.97787001    -0.13340000
opls_145-37    C    0.47820987    0.50000000    0.02078995    -0.13770000
opls_145-38    C    0.97447008    0.50000000    0.51670010    -0.13770000
opls_145-39    C    0.01663992    0.50000000    0.54255990    -0.13340000
opls_700-40    C    0.52432009    0.50000000    0.48106005    0.06330000
opls_145-41    C    0.54989998    0.50000000    0.46114011    0.03190000
opls_145-42    C    0.58937007    0.50000000    0.48104008    -0.22130000
opls_145-43    C    0.61349991    0.50000000    0.46268997    -0.22130000
opls_145-44    C    0.59876996    0.50000000    0.42368999    0.06740000
opls_145-45    C    0.55904999    0.50000000    0.40328988    -0.22090000
opls_145-46    C    0.53520997    0.50000000    0.42198991    -0.22130000
opls_142-47    C    0.62587994    0.50000000    0.40584984    -0.22060000
opls_142-48    C    0.61796005    0.50000000    0.37130990    -0.21990000
opls_700-49    C    0.64581993    0.50000000    0.35420982    0.00030000
opls_700-50    C    0.62922998    0.50000000    0.31180997    -0.07910000
opls_521-51    C    0.65442006    0.50000000    0.29421989    0.16850000
opls_521-52    C    0.71250987    0.50000000    0.36029990    0.19700000
opls_700-53    C    0.68791987    0.50000000    0.37865984    -0.07890000
opls_142-54    C    0.63858013    0.50000000    0.24944011    -0.22110000
opls_142-55    C    0.75716991    0.50000000    0.38543007    -0.18710000
opls_145-56    C    0.48161008    0.50000000    0.45728005    -0.13290000
opls_145-57    C    0.45770984    0.50000000    0.47589989    -0.13050000
opls_423-58    C    0.58737995    0.50000000    0.28737009    0.28260000
opls_423-59    C    0.70556014    0.50000000    0.42169007    0.28610000
opls_142-60    C    0.60374015    0.50000000    0.22191003    -0.22060000
opls_145-61    C    0.58426004    0.50000000    0.17661998    0.06470000
opls_142-62    C    0.78157008    0.50000000    0.36938002    -0.14100000
opls_145-63    C    0.82622003    0.50000000    0.39550986    0.06560000
opls_145-64    C    0.54486004    0.50000000    0.15289005    -0.22130000
opls_145-65    C    0.52461010    0.50000000    0.11010006    -0.22250000
opls_145-66    C    0.54296990    0.50000000    0.08958997    0.03190000
opls_145-67    C    0.58255998    0.50000000    0.11349009    -0.22130000
opls_145-68    C    0.60310990    0.50000000    0.15643983    -0.22090000
opls_145-69    C    0.85164010    0.50000000    0.38149997    -0.22090000
opls_145-70    C    0.89394996    0.50000000    0.40662001    -0.22130000
opls_145-71    C    0.91191980    0.50000000    0.44609985    0.03190000
opls_145-72    C    0.88615013    0.50000000    0.45915002    -0.22250000
opls_145-73    C    0.84393993    0.50000000    0.43432981    -0.22250000
opls_700-74    C    0.52100004    0.50000000    0.04367998    0.05830000
opls_700-75    C    0.95708999    0.50000000    0.47368001    0.06280000
opls_145-76    C    0.54243011    0.50000000    0.02212999    -0.13340000
opls_145-77    C    0.52179013    0.50000000    0.97921005    -0.13770000
opls_145-78    C    0.02552992    0.50000000    0.48329990    -0.13770000
opls_145-79    C    0.98336008    0.50000000    0.45744010    -0.13340000
opls_520-80    N    0.30504991    0.50000000    0.68101981    -0.36450000
opls_262-81    N    0.44600997    0.50000000    0.73216001    -0.31860000
opls_262-82    N    0.28027005    0.50000000    0.54389994    -0.35520000
opls_520-83    N    0.69494994    0.50000000    0.31897989    -0.36450000
opls_262-84    N    0.55399003    0.50000000    0.26783999    -0.31870000
opls_262-85    N    0.71972995    0.50000000    0.45610006    -0.35520000
opls_146-86    H    0.39850981    0.50000000    0.48957983    0.22450000
opls_146-87    H    0.35626993    0.50000000    0.52115000    0.22450000
opls_146-88    H    0.45395011    0.50000000    0.62686006    0.22370000
opls_146-89    H    0.49438997    0.50000000    0.59401990    0.22420000
opls_144-90    H    0.34605010    0.50000000    0.57776003    0.22450000
opls_144-91    H    0.41024007    0.50000000    0.64665006    0.22450000
opls_144-92    H    0.34293006    0.50000000    0.76002003    0.22450000
opls_144-93    H    0.22934004    0.50000000    0.58153991    0.11040000
opls_146-94    H    0.53365983    0.50000000    0.57587992    0.10650000
opls_146-95    H    0.57494005    0.50000000    0.54373005    0.10650000
opls_144-96    H    0.41233003    0.50000000    0.76675002    0.22450000
opls_144-97    H    0.23120000    0.50000000    0.66355998    0.11050000
opls_146-98    H    0.47024007    0.50000000    0.83243004    0.22430000
opls_146-99    H    0.50502989    0.50000000    0.90677976    0.22410000
opls_146-100    H    0.40251996    0.50000000    0.90076986    0.22450000
opls_146-101    H    0.36662979    0.50000000    0.82661983    0.22430000
opls_146-102    H    0.16129990    0.50000000    0.64825982    0.22410000
opls_146-103    H    0.08763984    0.50000000    0.60444990    0.22420000
opls_146-104    H    0.10157995    0.50000000    0.51177004    0.22450000
opls_146-105    H    0.17471007    0.50000000    0.55474006    0.22440000
opls_146-106    H    0.42473010    0.50000000    0.96178002    0.10990000
opls_146-107    H    0.46035009    0.50000000    0.03589012    0.10650000
opls_146-108    H    0.95562980    0.50000000    0.53071982    0.10900000
opls_146-109    H    0.02846000    0.50000000    0.57534999    0.10770000
opls_146-110    H    0.60149003    0.50000000    0.51041986    0.22450000
opls_146-111    H    0.64373007    0.50000000    0.47885000    0.22450000
opls_146-112    H    0.54604989    0.50000000    0.37313994    0.22370000
opls_146-113    H    0.50561003    0.50000000    0.40598010    0.22420000
opls_144-114    H    0.65394990    0.50000000    0.42223997    0.22450000
opls_144-115    H    0.58975993    0.50000000    0.35334994    0.22450000
opls_144-116    H    0.65706994    0.50000000    0.23997997    0.22450000
opls_144-117    H    0.77065996    0.50000000    0.41846009    0.11040000
opls_146-118    H    0.46634017    0.50000000    0.42412008    0.10650000
opls_146-119    H    0.42505995    0.50000000    0.45626995    0.10990000
opls_144-120    H    0.58766997    0.50000000    0.23324998    0.22450000
opls_144-121    H    0.76880000    0.50000000    0.33644002    0.11040000
opls_146-122    H    0.52975993    0.50000000    0.16756996    0.22430000
opls_146-123    H    0.49496996    0.50000000    0.09321993    0.22410000
opls_146-124    H    0.59748004    0.50000000    0.09923014    0.22450000
opls_146-125    H    0.63337005    0.50000000    0.17337987    0.22430000
opls_146-126    H    0.83869995    0.50000000    0.35173987    0.22410000
opls_146-127    H    0.91236016    0.50000000    0.39555010    0.22420000
opls_146-128    H    0.89842005    0.50000000    0.48822996    0.22450000
opls_146-129    H    0.82528993    0.50000000    0.44525994    0.22440000
opls_146-130    H    0.57526990    0.50000000    0.03821998    0.10990000
opls_146-131    H    0.53964991    0.50000000    0.96410988    0.10650000
opls_146-132    H    0.04437005    0.50000000    0.46927988    0.10900000
opls_146-133    H    0.97154000    0.50000000    0.42465001    0.10770000
