#======================================================================
# Crystal Data Generated By AuToFF
#----------------------------------------------------------------------

data_AuToFF_phase_1

_cell_length_a                         16.1242
_cell_length_b                         15.7895
_cell_length_c                         8.7895
_cell_angle_alpha                      73.03
_cell_angle_beta                       94.82
_cell_angle_gamma                      119.71
_symmetry_space_group_name_H-M_alt     'P 1'
_symmetry_space_group_IT_number        1

loop_
_space_group_symop_operation_xyz
   'x, y, z'

loop_
   _atom_site_label
   _atom_site_type_symbol
   _atom_site_fract_x
   _atom_site_fract_y
   _atom_site_fract_z
   _atom_site_charge
opls_280-0    C    0.20216011    0.71209033    0.21353016    0.26380000
opls_145-1    C    0.16243044    0.60259031    0.30634037    -0.11110000
opls_280-2    C    0.23093055    0.57180038    0.38956984    0.33310000
opls_145-3    C    0.33191012    0.62950036    0.32494964    -0.12050000
opls_280-4    C    0.37225007    0.74005983    0.24647058    0.34570000
opls_145-5    C    0.30718024    0.78384986    0.20214967    -0.14040000
opls_142-6    C    0.33931041    0.88501044    0.16246945    0.04990000
opls_142-7    C    0.38720065    0.58651023    0.33234063    0.05070000
opls_916-8    C    0.41240000    0.43557004    0.39075058    0.20970000
opls_142-9    C    0.06853042    0.53144007    0.32190952    0.05030000
opls_145-10    C    0.37086030    0.33544015    0.37991038    -0.15320000
opls_145-11    C    0.42891991    0.29276988    0.37892046    -0.23420000
opls_700-12    C    0.52841032    0.34656029    0.39393025    0.05890000
opls_145-13    C    0.56761010    0.44430014    0.41349962    -0.11460000
opls_145-14    C    0.51114035    0.48918998    0.40686956    -0.16420000
opls_701-15    C    0.58895024    0.29414990    0.41661011    -0.07360000
opls_700-16    C    0.69615030    0.36679994    0.37369059    0.08220000
opls_700-17    C    0.55058015    0.20804013    0.33906015    0.08180000
opls_145-18    C    0.76266004    0.35074975    0.47340042    -0.11350000
opls_145-19    C    0.86080038    0.41211028    0.43120008    -0.16270000
opls_916-20    C    0.89546023    0.49160995    0.28725999    0.20890000
opls_145-21    C    0.82867001    0.51224959    0.19204058    -0.15310000
opls_145-22    C    0.73034029    0.44881983    0.23360045    -0.18240000
opls_145-23    C    0.58314013    0.22345988    0.18461977    -0.17940000
opls_145-24    C    0.54894029    0.14241978    0.11847056    -0.15330000
opls_916-25    C    0.47634036    0.04485007    0.20300959    0.20250000
opls_145-26    C    0.44231989    0.02994028    0.35529958    -0.15920000
opls_145-27    C    0.48054006    0.10958984    0.42407982    -0.11550000
opls_280-28    C    0.96973003    0.11331988    0.81234011    0.34450000
opls_145-29    C    0.92833027    0.01324973    0.78043015    -0.14730000
opls_280-30    C    0.99493079    0.97717032    0.76124959    0.36800000
opls_145-31    C    0.09103024    0.02061974    0.82602006    -0.13550000
opls_280-32    C    0.11145000    0.09257998    0.91953037    0.35970000
opls_145-33    C    0.06382003    0.15557008    0.88276982    -0.11070000
opls_142-34    C    0.10385027    0.25032989    0.89925017    0.05030000
opls_142-35    C    0.15883056    0.99748031    0.80503976    0.05030000
opls_916-36    C    0.20280037    0.88888993    0.70025034    0.23290000
opls_142-37    C    0.83379039    0.95600998    0.76678955    0.05130000
opls_145-38    C    0.16842029    0.81205043    0.62172954    -0.15080000
opls_145-39    C    0.22514050    0.76584003    0.61786051    -0.12140000
opls_700-40    C    0.30987013    0.79039974    0.69658049    0.08160000
opls_145-41    C    0.33951010    0.86389981    0.77835967    -0.10610000
opls_145-42    C    0.28795032    0.91327031    0.77782058    -0.15720000
opls_701-43    C    0.37032052    0.74321033    0.67880966    -0.07440000
opls_700-44    C    0.47426015    0.80547019    0.71136009    0.09060000
opls_700-45    C    0.32904045    0.63012032    0.76797984    0.07880000
opls_145-46    C    0.50432068    0.79152049    0.86677965    -0.11780000
opls_145-47    C    0.59973037    0.85022041    0.89470966    -0.15820000
opls_916-48    C    0.66690083    0.92339030    0.76800011    0.20270000
opls_145-49    C    0.63742047    0.93882976    0.61131990    -0.15310000
opls_145-50    C    0.54144053    0.87974991    0.58478054    -0.14590000
opls_145-51    C    0.38108047    0.58142040    0.75934012    -0.21570000
opls_145-52    C    0.34328019    0.47652034    0.82836009    -0.15310000
opls_916-53    C    0.24826026    0.41661998    0.89589041    0.21470000
opls_145-54    C    0.19848002    0.46572977    0.91384013    -0.16360000
opls_145-55    C    0.23901028    0.57122998    0.85366025    -0.11460000
opls_238-56    N    0.43894045    0.96005976    0.13899050    -0.28720000
opls_238-57    N    0.35370995    0.47935986    0.39877012    -0.29440000
opls_238-58    N    0.99636023    0.54957013    0.23550992    -0.33310000
opls_238-59    N    0.20084014    0.30712967    0.93869066    -0.29430000
opls_238-60    N    0.15345031    0.94523990    0.69185035    -0.33310000
opls_238-61    N    0.76426018    0.98039989    0.80167046    -0.28620000
opls_281-62    O    0.45900011    0.79479992    0.22473055    -0.37910000
opls_281-63    O    0.20522031    0.50352971    0.51494001    -0.38180000
opls_281-64    O    0.14930048    0.74452051    0.15034951    -0.35550000
opls_154-65    O    0.17090011    0.30080976    0.26952018    -0.47820000
opls_494-66    O    0.19737994    0.21559015    0.55212039    -0.52930000
opls_494-67    O    0.21285018    0.15332996    0.34733014    -0.52930000
opls_154-68    O    0.54255011    0.09213966    0.80255065    -0.47820000
opls_494-69    O    0.63616032    0.27891983    0.82385059    -0.52930000
opls_494-70    O    0.70048051    0.17019017    0.94541972    -0.52930000
opls_154-71    O    0.96891027    0.73478019    0.02530971    -0.47580000
opls_494-72    O    0.78759029    0.65184047    0.97084989    -0.52920000
opls_494-73    O    0.88240060    0.60041024    0.86591974    -0.52930000
opls_281-74    O    0.16310989    0.09591012    0.02962003    -0.35460000
opls_281-75    O    0.96867081    0.90939038    0.69841959    -0.38070000
opls_281-76    O    0.92903045    0.16331003    0.77265989    -0.37950000
opls_154-77    O    0.14270046    0.83849980    0.38807065    -0.46860000
opls_494-78    O    0.04195041    0.67362024    0.63890045    -0.52930000
opls_494-79    O    0.01798025    0.71160010    0.41434046    -0.52930000
opls_154-80    O    0.53863043    0.50243048    0.75674963    -0.47780000
opls_494-81    O    0.42661032    0.36605004    0.00491977    -0.52910000
opls_494-82    O    0.37878053    0.33533039    0.75385979    -0.52930000
opls_154-83    O    0.72918998    0.15838983    0.40251988    -0.47790000
opls_494-84    O    0.68528011    0.00981968    0.28538034    -0.52930000
opls_494-85    O    0.82037998    0.05587016    0.44376012    -0.52920000
opls_474-86    S    0.24201028    0.25538021    0.37996047    1.10170000
opls_474-87    S    0.60300984    0.16791983    0.92639063    1.10180000
opls_474-88    S    0.86672997    0.62254011    0.01841010    1.10170000
opls_474-89    S    0.04909015    0.77497971    0.53430067    1.09430000
opls_474-90    S    0.42059036    0.42292026    0.83208957    1.10170000
opls_474-91    S    0.71723021    0.03871959    0.44237065    1.10170000
opls_144-92    H    0.28851039    0.91223024    0.14903996    0.11510000
opls_910-93    H    0.48278019    0.95688002    0.06293018    0.28690000
opls_144-94    H    0.45925028    0.63423994    0.27654025    0.12550000
opls_910-95    H    0.28404046    0.42983034    0.44885998    0.29490000
opls_144-96    H    0.04753023    0.45482998    0.39552962    0.11490000
opls_910-97    H    0.01608044    0.59424007    0.11733037    0.28690000
opls_146-98    H    0.39461030    0.21588006    0.37120984    0.10520000
opls_146-99    H    0.64192021    0.48613978    0.43731014    0.12630000
opls_146-100    H    0.54415039    0.56397022    0.42427065    0.12540000
opls_702-101    H    0.58083012    0.25775003    0.54710998    0.10820000
opls_146-102    H    0.73856011    0.28849025    0.58263015    0.11960000
opls_146-103    H    0.90849010    0.39541985    0.51217063    0.12360000
opls_146-104    H    0.68024991    0.46343980    0.15623058    0.12510000
opls_146-105    H    0.63728017    0.29759993    0.11578944    0.12050000
opls_146-106    H    0.38766016    0.95544034    0.42287999    0.12210000
opls_146-107    H    0.45303007    0.09514960    0.54226057    0.12360000
opls_796-108    H    0.21271015    0.37550992    0.23293017    0.39460000
opls_796-109    H    0.59235011    0.10596992    0.72571033    0.39520000
opls_796-110    H    0.99170051    0.77452015    0.91277985    0.39530000
opls_144-111    H    0.06341056    0.28992015    0.86604020    0.11900000
opls_910-112    H    0.24160039    0.27177006    0.97835061    0.28520000
opls_144-113    H    0.22332019    0.02706999    0.86685956    0.11820000
opls_910-114    H    0.11929027    0.95731993    0.58832039    0.27600000
opls_144-115    H    0.80789045    0.88644014    0.73380977    0.12160000
opls_910-116    H    0.77680036    0.01635010    0.89035044    0.27580000
opls_146-117    H    0.20202018    0.70993003    0.55311031    0.11650000
opls_146-118    H    0.40462032    0.88674024    0.83931956    0.10780000
opls_146-119    H    0.31798062    0.97352048    0.83413978    0.10130000
opls_702-120    H    0.37062034    0.74682047    0.55106965    0.10380000
opls_146-121    H    0.45361069    0.73487019    0.96590984    0.12510000
opls_146-122    H    0.62196037    0.83831997    0.01508969    0.12100000
opls_146-123    H    0.51915011    0.89232014    0.46484061    0.12730000
opls_146-124    H    0.45205029    0.62541988    0.69900042    0.11960000
opls_146-125    H    0.12757032    0.42227990    0.97407010    0.12100000
opls_146-126    H    0.19757022    0.60502034    0.86984005    0.12730000
opls_796-127    H    0.13845075    0.89886051    0.32143960    0.39360000
opls_796-128    H    0.56468062    0.45641019    0.76329025    0.39350000
opls_796-129    H    0.78098018    0.20284018    0.31610001    0.39520000
