#======================================================================
# Crystal Data Generated By AuToFF
#----------------------------------------------------------------------

data_AuToFF_phase_1

_cell_length_a                         22.5100
_cell_length_b                         22.5100
_cell_length_c                         4.9300
_cell_angle_alpha                      90.00
_cell_angle_beta                       90.00
_cell_angle_gamma                      120.00
_symmetry_space_group_name_H-M_alt     'P 1'
_symmetry_space_group_IT_number        1

loop_
_space_group_symop_operation_xyz
   'x, y, z'

loop_
   _atom_site_label
   _atom_site_type_symbol
   _atom_site_fract_x
   _atom_site_fract_y
   _atom_site_fract_z
   _atom_site_charge
opls_146-0    H    0.29051031    0.54049019    0.54121095    0.03950000
opls_144-1    H    0.49526006    0.85021004    0.52779919    0.03950000
opls_146-2    H    0.58534014    0.95954034    0.60891075    0.03950000
opls_146-3    H    0.62172025    0.07451025    0.88327992    0.03950000
opls_909-4    H    0.83652999    0.54278009    0.02033063    0.24760000
opls_146-5    H    0.45951016    0.75001988    0.54121095    0.03950000
opls_144-6    H    0.14979014    0.64504984    0.52779919    0.03950000
opls_146-7    H    0.04046022    0.62580004    0.60890061    0.03950000
opls_146-8    H    0.92548999    0.54721987    0.88325963    0.03950000
opls_909-9    H    0.47275999    0.24379009    0.19359026    0.24760000
opls_146-10    H    0.24997997    0.70948994    0.54121095    0.03950000
opls_144-11    H    0.35495025    0.50474012    0.52779919    0.03950000
opls_146-12    H    0.37419990    0.41466013    0.60890061    0.03950000
opls_146-13    H    0.45278999    0.37828988    0.88329006    0.03950000
opls_909-14    H    0.72004004    0.16949990    0.04910953    0.24760000
opls_146-15    H    0.70948969    0.45950981    0.54121095    0.03950000
opls_144-16    H    0.50473994    0.14978996    0.52779919    0.03950000
opls_146-17    H    0.41466012    0.04046018    0.60891075    0.03950000
opls_146-18    H    0.38057006    0.91588024    0.88221907    0.03950000
opls_909-19    H    0.19558979    0.44849989    0.12813996    0.24760000
opls_146-20    H    0.54048984    0.24998012    0.54121095    0.03950000
opls_144-21    H    0.85020986    0.35495016    0.52779919    0.03950000
opls_146-22    H    0.95953978    0.37419996    0.60890061    0.03950000
opls_146-23    H    0.08412013    0.46468006    0.88220081    0.03950000
opls_909-24    H    0.53151018    0.75640997    0.18744016    0.24760000
opls_146-25    H    0.75002003    0.29051006    0.54121095    0.03950000
opls_144-26    H    0.64504975    0.49525988    0.52779919    0.03950000
opls_146-27    H    0.62580010    0.58533987    0.60890061    0.03950000
opls_146-28    H    0.53532982    0.61942995    0.88221907    0.03950000
opls_909-29    H    0.32342014    0.83539027    0.98064097    0.24940000
opls_911-30    H    0.32966005    0.87795004    0.52265923    0.02330000
opls_911-31    H    0.12204004    0.45169981    0.52265923    0.02330000
opls_911-32    H    0.54830011    0.67033989    0.52266937    0.02330000
opls_911-33    H    0.67033995    0.12204996    0.52265923    0.02330000
opls_911-34    H    0.87795996    0.54830019    0.52265923    0.02330000
opls_911-35    H    0.45169989    0.32966011    0.52266937    0.02330000
opls_909-36    H    0.25381006    0.53958992    0.17408925    0.24760000
opls_909-37    H    0.75693992    0.50822012    0.20893915    0.24760000
opls_909-38    H    0.24474991    0.78505024    0.17007911    0.24760000
opls_909-39    H    0.55309009    0.31865019    0.09758012    0.24760000
opls_909-40    H    0.44713028    0.68514017    0.10849899    0.24760000
opls_909-41    H    0.74326995    0.25069982    0.20979919    0.24760000
opls_145-42    C    0.26171027    0.62116021    0.52129006    0.06640000
opls_145-43    C    0.30939020    0.59777996    0.52858012    -0.14840000
opls_700-44    C    0.38339983    0.81294003    0.50591075    0.01430000
opls_142-45    C    0.45280989    0.86310000    0.55987018    -0.05410000
opls_700-46    C    0.47657005    0.93043018    0.65326978    0.11320000
opls_145-47    C    0.54731995    0.97679006    0.66769980    -0.11570000
opls_145-48    C    0.57273021    0.04716011    0.75765923    -0.10150000
opls_142-49    C    0.33462995    0.83701023    0.40535903    0.05550000
opls_145-50    C    0.37884011    0.64055005    0.52129006    0.06640000
opls_145-51    C    0.40221995    0.71161005    0.52858012    -0.14840000
opls_700-52    C    0.18705989    0.57046008    0.50591075    0.01430000
opls_142-53    C    0.13689981    0.58970988    0.55987018    -0.05410000
opls_700-54    C    0.06957025    0.54614006    0.65326978    0.11340000
opls_145-55    C    0.02320984    0.57052984    0.66769980    -0.11570000
opls_145-56    C    0.95284027    0.52558013    0.75765923    -0.10150000
opls_142-57    C    0.16298995    0.49762007    0.40535903    0.05540000
opls_145-58    C    0.35945032    0.73829025    0.52129006    0.06640000
opls_145-59    C    0.28838985    0.69060999    0.52858012    -0.14840000
opls_700-60    C    0.42953984    0.61659989    0.50591075    0.01430000
opls_142-61    C    0.41028986    0.54719012    0.55987018    -0.05410000
opls_700-62    C    0.45385996    0.52343027    0.65326978    0.11300000
opls_145-63    C    0.42947021    0.45268010    0.66769980    -0.11570000
opls_145-64    C    0.47441999    0.42727002    0.75765923    -0.10150000
opls_142-65    C    0.50237991    0.66537021    0.40535903    0.05550000
opls_145-66    C    0.73828973    0.37883979    0.52129006    0.06650000
opls_145-67    C    0.69060980    0.40222004    0.52858012    -0.14840000
opls_700-68    C    0.61660017    0.18705997    0.50591075    0.01430000
opls_142-69    C    0.54719011    0.13690000    0.55987018    -0.05410000
opls_700-70    C    0.52342995    0.06956982    0.65326978    0.11320000
opls_145-71    C    0.45268005    0.02320994    0.66769980    -0.11570000
opls_145-72    C    0.42726979    0.95283989    0.75765923    -0.10150000
opls_142-73    C    0.66537005    0.16298977    0.40535903    0.05550000
opls_145-74    C    0.62115989    0.35944995    0.52129006    0.06640000
opls_145-75    C    0.59778005    0.28838995    0.52858012    -0.14840000
opls_700-76    C    0.81294011    0.42953992    0.50591075    0.01430000
opls_142-77    C    0.86310019    0.41029012    0.55987018    -0.05410000
opls_700-78    C    0.93042975    0.45385994    0.65326978    0.11340000
opls_145-79    C    0.97679016    0.42947016    0.66769980    -0.11560000
opls_145-80    C    0.04715973    0.47441987    0.75765923    -0.10150000
opls_142-81    C    0.83701005    0.50237993    0.40535903    0.05540000
opls_145-82    C    0.64054993    0.26171026    0.52129006    0.06640000
opls_145-83    C    0.71161015    0.30939001    0.52858012    -0.14840000
opls_700-84    C    0.57046016    0.38340011    0.50591075    0.01430000
opls_142-85    C    0.58971014    0.45280988    0.55987018    -0.05410000
opls_700-86    C    0.54614030    0.47657025    0.65326978    0.11300000
opls_145-87    C    0.57052979    0.54731990    0.66769980    -0.11570000
opls_145-88    C    0.52558001    0.57272998    0.75765923    -0.10140000
opls_142-89    C    0.49762009    0.33462979    0.40535903    0.05540000
opls_237-90    N    0.80090028    0.50095028    0.15750913    -0.50650000
opls_237-91    N    0.49905021    0.29996004    0.15750913    -0.50650000
opls_237-92    N    0.70003997    0.19909994    0.15750913    -0.50650000
opls_237-93    N    0.19909997    0.49905023    0.15750913    -0.50650000
opls_237-94    N    0.50094979    0.70003996    0.15750913    -0.50650000
opls_237-95    N    0.29996003    0.80090006    0.15750913    -0.50650000
