#======================================================================
# Crystal Data Generated By AuToFF
#----------------------------------------------------------------------

data_AuToFF_phase_1

_cell_length_a                         36.4400
_cell_length_b                         35.8100
_cell_length_c                         4.3800
_cell_angle_alpha                      88.78
_cell_angle_beta                       93.99
_cell_angle_gamma                      117.85
_symmetry_space_group_name_H-M_alt     'P 1'
_symmetry_space_group_IT_number        1

loop_
_space_group_symop_operation_xyz
   'x, y, z'

loop_
   _atom_site_label
   _atom_site_type_symbol
   _atom_site_fract_x
   _atom_site_fract_y
   _atom_site_fract_z
   _atom_site_charge
opls_179-0    O    0.06061995    0.47658972    0.82353978    -0.17680000
opls_179-1    O    0.95507012    0.53832008    0.04771082    -0.16920000
opls_179-2    O    0.43558998    0.95530987    0.29162079    -0.17610000
opls_179-3    O    0.57658984    0.05708989    0.69189957    -0.17600000
opls_179-4    O    0.29108990    0.71171996    0.15036061    -0.20850000
opls_179-5    O    0.44356993    0.46572002    0.40357013    -0.17740000
opls_179-6    O    0.72195980    0.30010976    0.84794108    -0.20760000
opls_179-7    O    0.57485994    0.55080988    0.67588916    -0.17760000
opls_145-8    C    0.24933001    0.62334008    0.05950978    0.07220000
opls_145-9    C    0.38044987    0.76164999    0.10459072    0.06100000
opls_145-10    C    0.63255982    0.25089991    0.89483936    0.06700000
opls_145-11    C    0.76451982    0.38860969    0.92891099    0.07190000
opls_145-12    C    0.41351990    0.78296981    0.92788102    -0.23130000
opls_145-13    C    0.43486978    0.82590978    0.93033923    -0.23800000
opls_145-14    C    0.42304978    0.84859989    0.10639890    0.17100000
opls_145-15    C    0.39063005    0.82748995    0.28536082    -0.23790000
opls_145-16    C    0.37007980    0.78462991    0.28832029    -0.23080000
opls_145-17    C    0.22561006    0.63166998    0.24372916    -0.23130000
opls_145-18    C    0.18318992    0.60846978    0.21743041    -0.23910000
opls_145-19    C    0.16357999    0.57527003    0.01222926    0.16950000
opls_145-20    C    0.18716993    0.56541996    0.84039020    -0.23810000
opls_145-21    C    0.22948980    0.58940973    0.86038091    -0.23130000
opls_145-22    C    0.78685998    0.37955980    0.73611076    -0.23100000
opls_145-23    C    0.82926993    0.40244973    0.74901981    -0.23910000
opls_145-24    C    0.85024992    0.43617986    0.94851947    0.16950000
opls_145-25    C    0.82797985    0.44675987    0.12884096    -0.23830000
opls_145-26    C    0.78569003    0.42305987    0.12226055    -0.23140000
opls_145-27    C    0.59933996    0.22933995    0.06986906    -0.23100000
opls_145-28    C    0.57771980    0.18640989    0.06243949    -0.23810000
opls_145-29    C    0.58943990    0.16390974    0.88339975    0.17100000
opls_145-30    C    0.62191999    0.18524990    0.70531903    -0.23800000
opls_145-31    C    0.64266991    0.22812981    0.70666944    -0.23080000
opls_142-32    C    0.09339992    0.55910998    0.06688899    0.08990000
opls_142-33    C    0.47166976    0.91778992    0.95181081    0.08990000
opls_142-34    C    0.91967985    0.45212999    0.86421929    0.08990000
opls_142-35    C    0.54070010    0.09458995    0.03422957    0.08990000
opls_145-36    C    0.48862992    0.96296987    0.97880079    0.00190000
opls_145-37    C    0.04912013    0.53068009    0.01172114    0.00170000
opls_145-38    C    0.52360006    0.04941998    0.00519108    0.00190000
opls_145-39    C    0.96404997    0.48020984    0.91285022    0.00220000
opls_145-40    C    0.02246988    0.54530996    0.07462984    -0.26050000
opls_166-41    C    0.03320980    0.49040984    0.89187989    0.17700000
opls_145-42    C    0.52322980    0.98798994    0.82708061    -0.26090000
opls_166-43    C    0.47088990    0.98115986    0.14507110    0.17580000
opls_145-44    C    0.99054985    0.46554981    0.84661126    -0.26200000
opls_166-45    C    0.98027010    0.52071011    0.02482015    0.17530000
opls_145-46    C    0.48896984    0.02438982    0.15656107    -0.26090000
opls_166-47    C    0.54129994    0.03123975    0.83854082    0.17580000
opls_145-48    C    0.29454988    0.64905983    0.07544924    0.01220000
opls_145-49    C    0.31805993    0.62935994    0.05918934    -0.15180000
opls_145-50    C    0.36044991    0.65175009    0.06265922    0.03430000
opls_145-51    C    0.37967989    0.69464997    0.08024893    -0.15180000
opls_145-52    C    0.35739982    0.71571991    0.09414904    0.01150000
opls_166-53    C    0.31422004    0.69259994    0.09540104    0.23120000
opls_145-54    C    0.38479991    0.63032997    0.04809077    0.03430000
opls_145-55    C    0.37478006    0.59437994    0.20903954    -0.23080000
opls_145-56    C    0.39784982    0.57435982    0.19675992    -0.23800000
opls_145-57    C    0.43163002    0.59010003    0.02287006    0.17130000
opls_145-58    C    0.44142997    0.62579990    0.86172903    -0.23800000
opls_145-59    C    0.41832973    0.64574983    0.87342957    -0.23080000
opls_182-60    C    0.28399988    0.73348988    0.90976029    0.04160000
opls_137-61    C    0.26247989    0.75606007    0.02412893    0.00590000
opls_136-62    C    0.26512980    0.79008982    0.81042932    -0.21860000
opls_135-63    C    0.21807978    0.72525988    0.07788914    -0.48450000
opls_135-64    C    0.25914976    0.82279970    0.96522111    -0.45140000
opls_142-65    C    0.45378006    0.53904997    0.14023937    0.08960000
opls_145-66    C    0.48206994    0.52308985    0.08941115    -0.00990000
opls_166-67    C    0.47655004    0.48641990    0.22309986    0.17530000
opls_145-68    C    0.50407001    0.47206001    0.17258064    -0.26130000
opls_145-69    C    0.53631972    0.49333974    0.98940039    -0.00990000
opls_166-70    C    0.54190989    0.53008981    0.85673021    0.17530000
opls_145-71    C    0.51439971    0.54441971    0.90708006    -0.26130000
opls_181-72    C    0.43371990    0.42554980    0.50312083    -0.23730000
opls_145-73    C    0.71932984    0.36316983    0.92615066    0.01220000
opls_145-74    C    0.69628984    0.38319998    0.95206945    -0.15180000
opls_145-75    C    0.65396001    0.36115990    0.95623056    0.03440000
opls_145-76    C    0.63428985    0.31826993    0.93474982    -0.15180000
opls_145-77    C    0.65608980    0.29681985    0.91174013    0.01150000
opls_166-78    C    0.69924991    0.31959000    0.90624006    0.23120000
opls_145-79    C    0.63014989    0.38298988    0.98119033    0.03430000
opls_145-80    C    0.64019979    0.41931971    0.82519919    -0.23080000
opls_145-81    C    0.61771980    0.43978979    0.84749933    -0.23790000
opls_145-82    C    0.58452987    0.42421008    0.02717995    0.17110000
opls_145-83    C    0.57457997    0.38804005    0.18245011    -0.23800000
opls_145-84    C    0.59709976    0.36760983    0.16071989    -0.23080000
opls_182-85    C    0.72868002    0.27767986    0.08554073    0.04160000
opls_137-86    C    0.75022992    0.25530987    0.96845066    0.00510000
opls_136-87    C    0.74773005    0.22119008    0.18052062    -0.21860000
opls_135-88    C    0.79459991    0.28625978    0.91488042    -0.48450000
opls_135-89    C    0.75404998    0.18878986    0.02436925    -0.45140000
opls_142-90    C    0.56436976    0.47719970    0.93502906    0.08960000
opls_181-91    C    0.58472992    0.59098991    0.57670925    -0.23740000
opls_181-92    C    0.41403993    0.97285989    0.42291081    -0.23720000
opls_181-93    C    0.04519983    0.43799973    0.67113066    -0.23740000
opls_181-94    C    0.95190986    0.54862002    0.34401000    -0.23730000
opls_181-95    C    0.59817992    0.03955981    0.56098951    -0.23740000
opls_750-96    N    0.12013983    0.55016974    0.97601069    -0.24090000
opls_750-97    N    0.44250989    0.89271979    0.11045930    -0.24890000
opls_750-98    N    0.56983997    0.11976979    0.87583056    -0.24800000
opls_750-99    N    0.89376980    0.46098975    0.97168937    -0.24090000
opls_750-100    N    0.45665993    0.57108003    0.00008011    -0.21490000
opls_750-101    N    0.56005007    0.44367010    0.05937016    -0.21490000
opls_146-102    H    0.42232981    0.76645996    0.78064010    0.19310000
opls_146-103    H    0.45979979    0.84063972    0.78925986    0.19310000
opls_146-104    H    0.38144980    0.84440994    0.42568946    0.19320000
opls_146-105    H    0.34605973    0.76951983    0.43414900    0.19310000
opls_146-106    H    0.23979984    0.65530975    0.41525922    0.19300000
opls_146-107    H    0.16628982    0.61588989    0.36554109    0.19300000
opls_146-108    H    0.17256991    0.53969984    0.68346979    0.19370000
opls_146-109    H    0.24658985    0.58191992    0.71395024    0.19310000
opls_146-110    H    0.77157008    0.35557998    0.56805973    0.19300000
opls_146-111    H    0.84501985    0.39433998    0.59504970    0.19300000
opls_146-112    H    0.84363976    0.47286982    0.28185890    0.19390000
opls_146-113    H    0.76969007    0.43118001    0.27477037    0.19310000
opls_146-114    H    0.59065986    0.24562000    0.22024111    0.19310000
opls_146-115    H    0.55271004    0.17153985    0.20269030    0.19320000
opls_146-116    H    0.63099981    0.16850975    0.56236968    0.19310000
opls_146-117    H    0.66668002    0.24342990    0.56076978    0.19310000
opls_144-118    H    0.10297990    0.58850981    0.17426980    0.09450000
opls_144-119    H    0.48439981    0.90628998    0.79584027    0.09450000
opls_144-120    H    0.90944983    0.42297985    0.75118047    0.09450000
opls_144-121    H    0.52815011    0.10600005    0.19228067    0.09450000
opls_146-122    H    0.03461995    0.57674004    0.15307059    0.19300000
opls_146-123    H    0.53589981    0.97317983    0.69978004    0.19310000
opls_146-124    H    0.97740002    0.43445997    0.75975903    0.19310000
opls_146-125    H    0.47630000    0.03920002    0.28390970    0.19310000
opls_146-126    H    0.30318991    0.59613990    0.04476051    0.19320000
opls_146-127    H    0.41259992    0.71181999    0.09251939    0.19380000
opls_146-128    H    0.34950998    0.58211000    0.34937961    0.19320000
opls_146-129    H    0.38895998    0.54694000    0.32504927    0.19320000
opls_146-130    H    0.46701981    0.63805986    0.72433927    0.19310000
opls_146-131    H    0.42633977    0.67289988    0.74186948    0.19320000
opls_185-132    H    0.26537989    0.71206970    0.72287899    0.07270000
opls_185-133    H    0.31325968    0.75641975    0.82895975    0.07020000
opls_140-134    H    0.27888986    0.77095993    0.24003040    0.08710000
opls_140-135    H    0.24190993    0.77647989    0.61994997    0.07700000
opls_140-136    H    0.29560981    0.80612991    0.72051920    0.09020000
opls_140-137    H    0.21697002    0.70350998    0.25285017    0.08570000
opls_140-138    H    0.20145987    0.70762005    0.86984983    0.08950000
opls_140-139    H    0.20201002    0.74114006    0.15624063    0.12760000
opls_140-140    H    0.22819972    0.80945972    0.04454078    0.09440000
opls_140-141    H    0.26301977    0.84722988    0.80491093    0.09140000
opls_140-142    H    0.28208994    0.83703989    0.15706003    0.08940000
opls_144-143    H    0.43081002    0.52357991    0.29582997    0.09450000
opls_146-144    H    0.50056000    0.44414997    0.27420045    0.19310000
opls_146-145    H    0.51794999    0.57236984    0.80581044    0.19310000
opls_185-146    H    0.45880996    0.42649976    0.65412002    0.08140000
opls_185-147    H    0.42675008    0.40438999    0.30983079    0.08610000
opls_185-148    H    0.40630992    0.41359985    0.63089061    0.08150000
opls_146-149    H    0.71146990    0.41641994    0.96734973    0.19310000
opls_146-150    H    0.60138983    0.30145977    0.92615066    0.19370000
opls_146-151    H    0.66499984    0.43151002    0.68051032    0.19320000
opls_146-152    H    0.62652983    0.46733971    0.72099986    0.19310000
opls_146-153    H    0.54937003    0.37577997    0.32336926    0.19310000
opls_146-154    H    0.58905004    0.34013009    0.28834089    0.19320000
opls_185-155    H    0.69930990    0.25459993    0.16397919    0.07040000
opls_185-156    H    0.74717981    0.29859989    0.27483904    0.07160000
opls_140-157    H    0.73379975    0.24056977    0.75216009    0.08760000
opls_140-158    H    0.71720001    0.20489999    0.26960904    0.09190000
opls_140-159    H    0.77082997    0.23473997    0.37170035    0.07820000
opls_140-160    H    0.79563994    0.30817984    0.74150097    0.08570000
opls_140-161    H    0.81071975    0.27054978    0.83451933    0.12760000
opls_140-162    H    0.81122976    0.30372979    0.12351941    0.08700000
opls_140-163    H    0.73130000    0.17469995    0.83123943    0.08980000
opls_140-164    H    0.75013012    0.16421006    0.18329011    0.09140000
opls_140-165    H    0.78511012    0.20238010    0.94674104    0.09450000
opls_144-166    H    0.58833993    0.49380993    0.78898978    0.09450000
opls_185-167    H    0.55962990    0.59007000    0.42592063    0.07810000
opls_185-168    H    0.61212979    0.60293995    0.44880900    0.08140000
opls_185-169    H    0.59172991    0.61212980    0.77017095    0.08830000
opls_185-170    H    0.38662981    0.94784993    0.51667075    0.08710000
opls_185-171    H    0.40399996    0.98858982    0.25198957    0.07790000
opls_185-172    H    0.43305004    0.99440999    0.60842109    0.08300000
opls_185-173    H    0.02882982    0.43775977    0.45461121    0.08880000
opls_185-174    H    0.02511977    0.41249986    0.81274104    0.09030000
opls_185-175    H    0.07114981    0.43329993    0.62457113    0.15800000
opls_185-176    H    0.93673986    0.52021994    0.47361085    0.14570000
opls_185-177    H    0.93273998    0.56371984    0.33671089    0.15400000
opls_185-178    H    0.98219980    0.57015991    0.45421066    0.08220000
opls_185-179    H    0.62558996    0.06456990    0.46730968    0.08650000
opls_185-180    H    0.57920009    0.01798007    0.37550898    0.08290000
opls_185-181    H    0.60820996    0.02384993    0.73218083    0.07790000
