#======================================================================
# Crystal Data Generated By AuToFF
#----------------------------------------------------------------------

data_AuToFF_phase_1

_cell_length_a                         17.5500
_cell_length_b                         17.5500
_cell_length_c                         3.5040
_cell_angle_alpha                      90.00
_cell_angle_beta                       90.00
_cell_angle_gamma                      120.00
_symmetry_space_group_name_H-M_alt     'P 1'
_symmetry_space_group_IT_number        1

loop_
_space_group_symop_operation_xyz
   'x, y, z'

loop_
   _atom_site_label
   _atom_site_type_symbol
   _atom_site_fract_x
   _atom_site_fract_y
   _atom_site_fract_z
   _atom_site_charge
opls_238-0    N    0.22662951    0.81376955    0.00000000    -0.19710000
opls_238-1    N    0.34796996    0.79064989    0.00000000    -0.19340000
opls_239-2    N    0.27504984    0.90656008    0.00000000    0.02570000
opls_750-3    N    0.11072005    0.62495008    0.00000000    -0.16580000
opls_238-4    N    0.20350990    0.66931952    0.00000000    -0.21460000
opls_750-5    N    0.39232987    0.74223012    0.00000000    -0.16580000
opls_302-6    C    0.25937004    0.75791957    0.00000000    0.44910000
opls_142-7    C    0.35345001    0.65706982    0.00000000    -0.06370000
opls_700-8    C    0.40366018    0.61091011    0.00000000    0.06420000
opls_145-9    C    0.49582968    0.65708956    0.00000000    -0.10450000
opls_145-10    C    0.54209006    0.61144963    0.00000000    -0.08390000
opls_700-11    C    0.49699979    0.51906966    0.00000000    0.06840000
opls_145-12    C    0.40459983    0.47337972    0.00000000    -0.08390000
opls_145-13    C    0.35831002    0.51900979    0.00000000    -0.10290000
opls_145-14    C    0.50100958    0.37843967    0.00000000    -0.09020000
opls_700-15    C    0.54601971    0.47066963    0.00000000    0.07820000
opls_145-16    C    0.63826021    0.51627996    0.00000000    -0.09020000
opls_700-17    C    0.68546979    0.47125981    0.00000000    0.07810000
opls_700-18    C    0.54662019    0.33181018    0.00000000    0.07820000
opls_700-19    C    0.49821991    0.23438967    0.00000000    0.06840000
opls_700-20    C    0.78288981    0.52029016    0.00000000    0.06840000
opls_145-21    C    0.63884997    0.37902985    0.00000000    -0.09030000
opls_145-22    C    0.40584016    0.18710025    0.00000000    -0.08390000
opls_145-23    C    0.82959982    0.61267999    0.00000000    -0.08390000
opls_145-24    C    0.54390985    0.18768978    0.00000000    -0.08370000
opls_145-25    C    0.49827004    0.09576972    0.00000000    -0.10300000
opls_700-26    C    0.40637023    0.04920997    0.00000000    0.06420000
opls_145-27    C    0.36018971    0.09519993    0.00000000    -0.10440000
opls_145-28    C    0.83018005    0.47518974    0.00000000    -0.08390000
opls_145-29    C    0.92209011    0.52145999    0.00000000    -0.10450000
opls_700-30    C    0.96807999    0.61363007    0.00000000    0.06420000
opls_145-31    C    0.92151975    0.65896998    0.00000000    -0.10290000
opls_142-32    C    0.06443958    0.66382959    0.00000000    0.06540000
opls_142-33    C    0.36021958    0.95284941    0.00000000    0.05250000
opls_910-34    H    0.39349959    0.86287951    0.00000000    0.22230000
opls_910-35    H    0.23842978    0.63121967    0.00000000    0.14040000
opls_144-36    H    0.27854026    0.61635003    0.00000000    -0.19970000
opls_146-37    H    0.53325990    0.73210955    0.00000000    0.04500000
opls_146-38    H    0.61709987    0.64983962    0.00000000    0.04560000
opls_146-39    H    0.36667958    0.39835973    0.00000000    0.04500000
opls_146-40    H    0.28329956    0.48123958    0.00000000    0.04560000
opls_146-41    H    0.42599996    0.34003981    0.00000000    0.04560000
opls_146-42    H    0.67485972    0.59127955    0.00000000    0.04560000
opls_146-43    H    0.67724000    0.34241961    0.00000000    0.04560000
opls_146-44    H    0.36744011    0.22370984    0.00000000    0.04560000
opls_146-45    H    0.79249978    0.65059956    0.00000000    0.04500000
opls_146-46    H    0.61891974    0.22545999    0.00000000    0.04560000
opls_146-47    H    0.53604972    0.05851994    0.00000000    0.04500000
opls_146-48    H    0.28517993    0.05761000    0.00000000    0.04560000
opls_146-49    H    0.79292970    0.40017962    0.00000000    0.04560000
opls_146-50    H    0.95984970    0.48419969    0.00000000    0.04500000
opls_146-51    H    0.95853022    0.73398010    0.00000000    0.04560000
opls_144-52    H    0.09863974    0.73874957    0.00000000    0.02690000
opls_144-53    H    0.40093976    0.91864989    0.00000000    0.02690000
opls_910-54    H    0.16382010    0.81464989    0.00000000    0.22220000
MOF2_Cl-55    Cl    0.19268995    0.93343005    0.00000000    0.05150000
