#======================================================================
# Crystal Data Generated By AuToFF
#----------------------------------------------------------------------

data_AuToFF_phase_1

_cell_length_a                         27.0180
_cell_length_b                         27.0180
_cell_length_c                         3.3060
_cell_angle_alpha                      90.00
_cell_angle_beta                       90.00
_cell_angle_gamma                      120.00
_symmetry_space_group_name_H-M_alt     'P 1'
_symmetry_space_group_IT_number        1

loop_
_space_group_symop_operation_xyz
   'x, y, z'

loop_
   _atom_site_label
   _atom_site_type_symbol
   _atom_site_fract_x
   _atom_site_fract_y
   _atom_site_fract_z
   _atom_site_charge
opls_231-0    C    0.29375027    0.68670034    0.00000000    0.31560000
opls_522-1    C    0.27564028    0.62785026    0.00000000    -0.11740000
opls_166-2    C    0.40912024    0.62750024    0.00000000    0.48100000
opls_567-3    C    0.41667000    0.55015990    0.00000000    0.47210000
opls_700-4    C    0.47626008    0.58464023    0.00000000    -0.10960000
opls_166-5    C    0.50134018    0.64318003    0.00000000    0.57290000
opls_517-6    C    0.57975002    0.73529026    0.00000000    0.03350000
opls_142-7    C    0.63628023    0.77280030    0.00000000    -0.18040000
opls_523-8    C    0.49657994    0.54726012    0.00000000    0.01830000
opls_567-9    C    0.44636027    0.49096023    0.00000000    0.24270000
opls_145-10    C    0.44879987    0.44266008    0.00000000    -0.19740000
opls_142-11    C    0.66874015    0.83017035    0.00000000    -0.12670000
opls_142-12    C    0.72436029    0.87022032    0.00000000    -0.12580000
opls_142-13    C    0.75632994    0.92796006    0.00000000    -0.09530000
opls_143-14    C    0.81060016    0.96855024    0.00000000    -0.32520000
opls_231-15    C    0.31329997    0.60705001    0.00000000    0.31560000
opls_522-16    C    0.37214997    0.64779020    0.00000000    -0.11740000
opls_166-17    C    0.37250007    0.78162018    0.00000000    0.48100000
opls_567-18    C    0.44983998    0.86651022    0.00000000    0.47210000
opls_700-19    C    0.41536003    0.89162019    0.00000000    -0.10960000
opls_166-20    C    0.35682004    0.85816003    0.00000000    0.57290000
opls_517-21    C    0.26470998    0.84446030    0.00000000    0.03350000
opls_142-22    C    0.22720010    0.86348008    0.00000000    -0.18040000
opls_523-23    C    0.45274026    0.94932018    0.00000000    0.01830000
opls_567-24    C    0.50903991    0.95540012    0.00000000    0.24270000
opls_145-25    C    0.55734021    0.00614020    0.00000000    -0.19740000
opls_142-26    C    0.16982988    0.83857012    0.00000000    -0.12670000
opls_142-27    C    0.12978008    0.85414007    0.00000000    -0.12580000
opls_142-28    C    0.07204024    0.82837022    0.00000000    -0.09530000
opls_143-29    C    0.03145005    0.84205029    0.00000000    -0.32520000
opls_231-30    C    0.39294997    0.70625008    0.00000000    0.31560000
opls_522-31    C    0.35220996    0.72435996    0.00000000    -0.11740000
opls_166-32    C    0.21837990    0.59088001    0.00000000    0.48100000
opls_567-33    C    0.13349023    0.58333031    0.00000000    0.47210000
opls_700-34    C    0.10838011    0.52374000    0.00000000    -0.10960000
opls_166-35    C    0.14184015    0.49865994    0.00000000    0.57290000
opls_517-36    C    0.15553985    0.42024987    0.00000000    0.03350000
opls_142-37    C    0.13651988    0.36372005    0.00000000    -0.18040000
opls_523-38    C    0.05068001    0.50342012    0.00000000    0.01830000
opls_567-39    C    0.04460004    0.55364008    0.00000000    0.24270000
opls_145-40    C    0.99386013    0.55120015    0.00000000    -0.19740000
opls_142-41    C    0.16142982    0.33125996    0.00000000    -0.12670000
opls_142-42    C    0.14585984    0.27564004    0.00000000    -0.12580000
opls_142-43    C    0.17163003    0.24367015    0.00000000    -0.09530000
opls_143-44    C    0.15795001    0.18939990    0.00000000    -0.32520000
opls_231-45    C    0.70624994    0.31330009    0.00000000    0.31560000
opls_522-46    C    0.72435993    0.37215016    0.00000000    -0.11740000
opls_166-47    C    0.59087997    0.37250019    0.00000000    0.48100000
opls_567-48    C    0.58333000    0.44984010    0.00000000    0.47210000
opls_700-49    C    0.52374013    0.41536020    0.00000000    -0.10960000
opls_166-50    C    0.49865982    0.35681997    0.00000000    0.57290000
opls_517-51    C    0.42025019    0.26471017    0.00000000    0.03350000
opls_142-52    C    0.36371999    0.22720013    0.00000000    -0.18040000
opls_523-53    C    0.50342006    0.45273988    0.00000000    0.01830000
opls_567-54    C    0.55363995    0.50904020    0.00000000    0.24270000
opls_145-55    C    0.55120013    0.55733992    0.00000000    -0.19740000
opls_142-56    C    0.33126007    0.16983008    0.00000000    -0.12670000
opls_142-57    C    0.27563992    0.12978011    0.00000000    -0.12580000
opls_142-58    C    0.24367006    0.07203994    0.00000000    -0.09530000
opls_143-59    C    0.18940005    0.03145019    0.00000000    -0.32520000
opls_231-60    C    0.68670003    0.39294999    0.00000000    0.31560000
opls_522-61    C    0.62785025    0.35221023    0.00000000    -0.11740000
opls_166-62    C    0.62750014    0.21838025    0.00000000    0.48100000
opls_567-63    C    0.55016024    0.13349021    0.00000000    0.47210000
opls_700-64    C    0.58463997    0.10837981    0.00000000    -0.10960000
opls_166-65    C    0.64317996    0.14183997    0.00000000    0.57290000
opls_517-66    C    0.73529024    0.15554013    0.00000000    0.03350000
opls_142-67    C    0.77279990    0.13651992    0.00000000    -0.18040000
opls_523-68    C    0.54725974    0.05067982    0.00000000    0.01830000
opls_567-69    C    0.49096009    0.04459988    0.00000000    0.24270000
opls_145-70    C    0.44266000    0.99386023    0.00000000    -0.19740000
opls_142-71    C    0.83017012    0.16142988    0.00000000    -0.12670000
opls_142-72    C    0.87021992    0.14585993    0.00000000    -0.12580000
opls_142-73    C    0.92795997    0.17163021    0.00000000    -0.09530000
opls_143-74    C    0.96855017    0.15795014    0.00000000    -0.32520000
opls_231-75    C    0.60705003    0.29374992    0.00000000    0.31560000
opls_522-76    C    0.64779004    0.27564004    0.00000000    -0.11740000
opls_166-77    C    0.78162010    0.40911999    0.00000000    0.48100000
opls_567-78    C    0.86650998    0.41667012    0.00000000    0.47210000
opls_700-79    C    0.89161989    0.47626000    0.00000000    -0.10960000
opls_166-80    C    0.85815985    0.50134006    0.00000000    0.57290000
opls_517-81    C    0.84446015    0.57975013    0.00000000    0.03350000
opls_142-82    C    0.86348012    0.63627995    0.00000000    -0.18040000
opls_523-83    C    0.94932021    0.49658030    0.00000000    0.01830000
opls_567-84    C    0.95539996    0.44635992    0.00000000    0.24270000
opls_145-85    C    0.00614009    0.44880027    0.00000000    -0.19740000
opls_142-86    C    0.83857018    0.66874004    0.00000000    -0.12670000
opls_142-87    C    0.85414016    0.72435996    0.00000000    -0.12580000
opls_142-88    C    0.82837019    0.75633028    0.00000000    -0.09530000
opls_143-89    C    0.84204999    0.81060010    0.00000000    -0.32520000
opls_272-90    O    0.29251002    0.55284002    0.00000000    -0.44520000
opls_180-91    O    0.46696011    0.66530004    0.00000000    -0.26770000
opls_180-92    O    0.55768990    0.67820014    0.00000000    -0.18060000
opls_566-93    O    0.39812999    0.49425022    0.00000000    -0.15550000
opls_272-94    O    0.44716015    0.73967007    0.00000000    -0.44520000
opls_180-95    O    0.33470007    0.80166012    0.00000000    -0.26770000
opls_180-96    O    0.32180004    0.87949024    0.00000000    -0.18060000
opls_566-97    O    0.50575009    0.90388007    0.00000000    -0.15550000
opls_272-98    O    0.26033004    0.70749034    0.00000000    -0.44520000
opls_180-99    O    0.19834003    0.53304026    0.00000000    -0.26770000
opls_180-100    O    0.12050990    0.44231005    0.00000000    -0.18060000
opls_566-101    O    0.09612013    0.60187014    0.00000000    -0.15550000
opls_272-102    O    0.70748998    0.44715998    0.00000000    -0.44520000
opls_180-103    O    0.53303989    0.33469996    0.00000000    -0.26770000
opls_180-104    O    0.44231010    0.32179986    0.00000000    -0.18060000
opls_566-105    O    0.60187022    0.50575021    0.00000000    -0.15550000
opls_272-106    O    0.55283985    0.26032993    0.00000000    -0.44520000
opls_180-107    O    0.66529993    0.19833988    0.00000000    -0.26770000
opls_180-108    O    0.67820017    0.12051019    0.00000000    -0.18060000
opls_566-109    O    0.49424991    0.09611993    0.00000000    -0.15550000
opls_272-110    O    0.73967017    0.29251009    0.00000000    -0.44520000
opls_180-111    O    0.80166018    0.46696016    0.00000000    -0.26770000
opls_180-112    O    0.87949010    0.55768995    0.00000000    -0.18060000
opls_566-113    O    0.90387987    0.39812986    0.00000000    -0.15550000
opls_520-114    N    0.38441016    0.57163030    0.00000000    -0.26780000
opls_520-115    N    0.42837025    0.81278018    0.00000000    -0.26780000
opls_520-116    N    0.18721981    0.61558996    0.00000000    -0.26780000
opls_520-117    N    0.61559006    0.42837013    0.00000000    -0.26780000
opls_520-118    N    0.57162975    0.18721982    0.00000000    -0.26780000
opls_520-119    N    0.81278019    0.38441004    0.00000000    -0.26780000
opls_185-120    H    0.55011014    0.75396001    0.00000000    0.02440000
opls_144-121    H    0.66805008    0.75669013    0.00000000    0.04530000
opls_146-122    H    0.40768014    0.39947013    0.00000000    0.04530000
opls_144-123    H    0.64765004    0.85765999    0.00000000    0.04530000
opls_144-124    H    0.75836015    0.85700011    0.00000000    0.04530000
opls_144-125    H    0.73463002    0.95488000    0.00000000    0.04530000
opls_144-126    H    0.84239002    0.96493031    0.79303993    0.10380000
opls_144-127    H    0.82565011    0.00721036    0.20696007    0.10380000
opls_185-128    H    0.24604022    0.79615031    0.00000000    0.02440000
opls_144-129    H    0.24331016    0.91136011    0.00000000    0.04530000
opls_146-130    H    0.60053008    0.00821984    0.00000000    0.04530000
opls_144-131    H    0.14234012    0.78999003    0.00000000    0.04530000
opls_144-132    H    0.14300005    0.90136023    0.00000000    0.04530000
opls_144-133    H    0.04511990    0.77974013    0.00000000    0.04530000
opls_144-134    H    0.99013004    0.81472006    0.82565941    0.10380000
opls_144-135    H    0.03774005    0.88119036    0.17434059    0.10380000
opls_185-136    H    0.20385022    0.44989010    0.00000000    0.02440000
opls_144-137    H    0.08863998    0.33195018    0.00000000    0.04530000
opls_146-138    H    0.99178010    0.59232029    0.00000000    0.04530000
opls_144-139    H    0.21000984    0.35234998    0.00000000    0.04530000
opls_144-140    H    0.09864002    0.24164009    0.00000000    0.04530000
opls_144-141    H    0.22025997    0.26537005    0.00000000    0.04530000
opls_144-142    H    0.19182988    0.17726994    0.92967030    0.10380000
opls_144-143    H    0.11225991    0.15469007    0.07032970    0.10380000
opls_185-144    H    0.44988986    0.24603999    0.00000000    0.02440000
opls_144-145    H    0.33194992    0.24330987    0.00000000    0.04530000
opls_146-146    H    0.59232007    0.60053030    0.00000000    0.04530000
opls_144-147    H    0.35234996    0.14234001    0.00000000    0.04530000
opls_144-148    H    0.24163985    0.14299989    0.00000000    0.04530000
opls_144-149    H    0.26536998    0.04512000    0.00000000    0.04530000
opls_144-150    H    0.17435010    0.99279007    0.79303993    0.10380000
opls_144-151    H    0.15761019    0.03507011    0.20696007    0.10380000
opls_185-152    H    0.75396000    0.20385011    0.00000000    0.02440000
opls_144-153    H    0.75668984    0.08863989    0.00000000    0.04530000
opls_146-154    H    0.39946992    0.99178016    0.00000000    0.04530000
opls_144-155    H    0.85765988    0.21000997    0.00000000    0.04530000
opls_144-156    H    0.85700016    0.09864020    0.00000000    0.04530000
opls_144-157    H    0.95488010    0.22025987    0.00000000    0.04530000
opls_144-158    H    0.96226017    0.11881007    0.82565941    0.10380000
opls_144-159    H    0.00986996    0.18527994    0.17434059    0.10380000
opls_185-160    H    0.79614978    0.55010990    0.00000000    0.02440000
opls_144-161    H    0.91136023    0.66805024    0.00000000    0.04530000
opls_146-162    H    0.00822011    0.40768014    0.00000000    0.04530000
opls_144-163    H    0.78999016    0.64765002    0.00000000    0.04530000
opls_144-164    H    0.90136020    0.75836034    0.00000000    0.04530000
opls_144-165    H    0.77974003    0.73462995    0.00000000    0.04530000
opls_144-166    H    0.88774031    0.84531036    0.92967030    0.10380000
opls_144-167    H    0.80817012    0.82273006    0.07032970    0.10380000
