#======================================================================
# Crystal Data Generated By AuToFF
#----------------------------------------------------------------------

data_AuToFF_phase_1

_cell_length_a                         27.2545
_cell_length_b                         27.3419
_cell_length_c                         4.2925
_cell_angle_alpha                      76.31
_cell_angle_beta                       100.92
_cell_angle_gamma                      95.77
_symmetry_space_group_name_H-M_alt     'P 1'
_symmetry_space_group_IT_number        1

loop_
_space_group_symop_operation_xyz
   'x, y, z'

loop_
   _atom_site_label
   _atom_site_type_symbol
   _atom_site_fract_x
   _atom_site_fract_y
   _atom_site_fract_z
   _atom_site_charge
opls_716-0    C    0.37214006    0.39464989    0.55631840    -0.16890000
opls_716-1    C    0.40716978    0.36303011    0.54414961    -0.16460000
opls_543-2    C    0.45400004    0.39247994    0.52245995    0.21990000
opls_543-3    C    0.39748985    0.44372986    0.54618910    0.25160000
opls_700-4    C    0.37375990    0.48686996    0.54973995    -0.06890000
opls_700-5    C    0.50042005    0.68241991    0.48060902    0.07510000
opls_145-6    C    0.28850987    0.51739991    0.31301063    -0.12020000
opls_145-7    C    0.23744982    0.51774011    0.31059878    -0.17590000
opls_145-8    C    0.21438014    0.48388014    0.55196928    0.21590000
opls_145-9    C    0.24467974    0.44918978    0.78875944    -0.17160000
opls_145-10    C    0.29581986    0.44912006    0.78944819    -0.13480000
opls_716-11    C    0.04174001    0.53918000    0.24737945    -0.18370000
opls_567-12    C    0.99680007    0.52151996    0.36732970    -0.00290000
opls_567-13    C    0.08133981    0.50966008    0.42036862    -0.01210000
opls_142-14    C    0.13293015    0.51485009    0.37712072    0.07190000
opls_716-15    C    0.62785993    0.60539992    0.44473055    -0.16720000
opls_716-16    C    0.59287010    0.63692011    0.45656835    -0.17060000
opls_543-17    C    0.54601979    0.60750013    0.47830912    0.21150000
opls_543-18    C    0.60248995    0.55628015    0.45496937    0.22490000
opls_700-19    C    0.62625992    0.51308994    0.45090013    -0.06700000
opls_700-20    C    0.49955994    0.31758980    0.51961001    0.07510000
opls_145-21    C    0.71145989    0.48257011    0.68720841    -0.11880000
opls_145-22    C    0.76255985    0.48220982    0.68948884    -0.17770000
opls_145-23    C    0.78562007    0.51607985    0.44805019    0.21530000
opls_145-24    C    0.75531009    0.55081005    0.21133061    -0.17170000
opls_145-25    C    0.70411999    0.55087004    0.21104099    -0.11770000
opls_716-26    C    0.95821976    0.46073989    0.75194883    -0.18360000
opls_567-27    C    0.00314986    0.47835983    0.63198884    -0.00200000
opls_567-28    C    0.91864001    0.49026000    0.57918844    -0.01220000
opls_142-29    C    0.86703988    0.48510980    0.62269918    0.07130000
opls_716-30    C    0.58844985    0.38321009    0.43290004    -0.16720000
opls_716-31    C    0.62367999    0.42252985    0.41749922    -0.17100000
opls_543-32    C    0.60074001    0.46566998    0.45659025    0.21150000
opls_543-33    C    0.54355985    0.40216990    0.48117852    0.22490000
opls_700-34    C    0.49866007    0.37239987    0.50744852    -0.07040000
opls_700-35    C    0.31899009    0.48348003    0.55222969    0.06830000
opls_145-36    C    0.46570009    0.29461000    0.29833020    -0.11880000
opls_145-37    C    0.46611002    0.24340996    0.30613040    -0.17090000
opls_145-38    C    0.50056000    0.21252982    0.53978831    0.20750000
opls_145-39    C    0.53478007    0.23564973    0.76127987    -0.17440000
opls_145-40    C    0.53421001    0.28682976    0.75127955    -0.13480000
opls_716-41    C    0.45559977    0.04607985    0.26953883    -0.18410000
opls_567-42    C    0.47823988    0.99928006    0.37802851    -0.00710000
opls_567-43    C    0.48184994    0.08223995    0.42911068    -0.01190000
opls_142-44    C    0.47235977    0.13450012    0.38967891    0.07110000
opls_716-45    C    0.41151005    0.61683983    0.56687848    -0.16840000
opls_716-46    C    0.37625996    0.57749998    0.58231825    -0.17060000
opls_543-47    C    0.39921011    0.53434993    0.54342922    0.21110000
opls_543-48    C    0.45639005    0.59789010    0.51864868    0.22610000
opls_700-49    C    0.50129992    0.62760991    0.49296035    -0.06890000
opls_700-50    C    0.68101984    0.51649978    0.44842986    0.07510000
opls_145-51    C    0.53426991    0.70541975    0.70183043    -0.11210000
opls_145-52    C    0.53389975    0.75662004    0.69410811    -0.18410000
opls_145-53    C    0.49946985    0.78747996    0.46010947    0.20750000
opls_145-54    C    0.46525982    0.76440995    0.23858871    -0.17550000
opls_145-55    C    0.46580987    0.71320001    0.24872045    -0.12180000
opls_716-56    C    0.54452992    0.95399994    0.72961909    -0.20270000
opls_567-57    C    0.52188973    0.00081005    0.62096878    -0.00970000
opls_567-58    C    0.51825018    0.91782994    0.57011052    -0.01190000
opls_142-59    C    0.52773016    0.86556002    0.60990978    0.07050000
opls_542-60    N    0.44710000    0.44176988    0.52512005    -0.34650000
opls_750-61    N    0.16322981    0.48256010    0.57079927    -0.27010000
opls_542-62    N    0.55293989    0.55821982    0.47587049    -0.34690000
opls_750-63    N    0.83672011    0.51737015    0.42888921    -0.27420000
opls_542-64    N    0.55140990    0.45248998    0.48766936    -0.35690000
opls_750-65    N    0.50417984    0.16084980    0.56041929    -0.27420000
opls_542-66    N    0.44856008    0.54749002    0.51222842    -0.35690000
opls_750-67    N    0.49584998    0.83920005    0.43916941    -0.27390000
opls_633-68    S    0.06399977    0.46076998    0.73050011    0.07340000
opls_633-69    S    0.93596010    0.53913983    0.26877949    0.07600000
opls_633-70    S    0.53391992    0.05929978    0.71260955    0.07390000
opls_633-71    S    0.46620014    0.94078000    0.28657027    0.07680000
Zn2+-72    Zn    0.50000007    0.49998999    0.50030057    0.73250000
opls_547-73    H    0.33304984    0.38409985    0.57421870    0.12020000
opls_547-74    H    0.40062990    0.32300983    0.55089842    0.12480000
opls_146-75    H    0.30507984    0.54392985    0.11958032    0.09230000
opls_146-76    H    0.21509995    0.54471987    0.11781098    0.10120000
opls_146-77    H    0.22785001    0.42255007    0.97959780    0.08660000
opls_146-78    H    0.31861993    0.42252981    0.98139878    0.07620000
opls_570-79    H    0.04440007    0.57139996    0.04362027    0.11650000
opls_144-80    H    0.14453011    0.54655014    0.18291890    0.04860000
opls_547-81    H    0.66696010    0.61588988    0.42657957    0.11980000
opls_547-82    H    0.59939979    0.67701013    0.44975869    0.12150000
opls_146-83    H    0.69494998    0.45601979    0.88072876    0.08590000
opls_146-84    H    0.78490000    0.45520992    0.88201866    0.10760000
opls_146-85    H    0.77210010    0.57743004    0.02053119    0.09450000
opls_146-86    H    0.68136000    0.57749019    0.01929971    0.07560000
opls_570-87    H    0.95556986    0.42849976    0.95591975    0.11650000
opls_144-88    H    0.85547991    0.45345977    0.81735854    0.04860000
opls_547-89    H    0.59337001    0.34545998    0.40606055    0.11590000
opls_547-90    H    0.66161014    0.42169009    0.37391059    0.11930000
opls_146-91    H    0.43925010    0.31757005    0.10798103    0.06620000
opls_146-92    H    0.43969003    0.22728997    0.12394892    0.12790000
opls_146-93    H    0.56190984    0.21263977    0.94576854    0.07360000
opls_146-94    H    0.56106979    0.30364981    0.92744964    0.06620000
opls_570-95    H    0.42208016    0.05255012    0.08284029    0.11690000
opls_144-96    H    0.43839011    0.14982979    0.21748072    0.04880000
opls_547-97    H    0.40660976    0.65456999    0.59368878    0.11810000
opls_547-98    H    0.33836996    0.57834988    0.62588984    0.12130000
opls_146-99    H    0.56073001    0.68242998    0.89250816    0.12180000
opls_146-100    H    0.56029982    0.77273009    0.87625795    0.12180000
opls_146-101    H    0.43818020    0.78739989    0.05388099    0.08780000
opls_146-102    H    0.43895012    0.69636996    0.07249925    0.07820000
opls_570-103    H    0.57802990    0.94750993    0.91637847    0.12050000
opls_144-104    H    0.56166002    0.85022011    0.78214935    0.04860000
