#======================================================================
# Crystal Data Generated By AuToFF
#----------------------------------------------------------------------

data_AuToFF_phase_1

_cell_length_a                         11.1520
_cell_length_b                         11.1520
_cell_length_c                         3.4996
_cell_angle_alpha                      90.00
_cell_angle_beta                       90.00
_cell_angle_gamma                      120.00
_symmetry_space_group_name_H-M_alt     'P 1'
_symmetry_space_group_IT_number        1

loop_
_space_group_symop_operation_xyz
   'x, y, z'

loop_
   _atom_site_label
   _atom_site_type_symbol
   _atom_site_fract_x
   _atom_site_fract_y
   _atom_site_fract_z
   _atom_site_charge
opls_642-0    C    0.80574022    0.38263001    0.50000000    0.40030000
opls_642-1    C    0.61737983    0.42310974    0.50000000    0.40030000
opls_642-2    C    0.57688999    0.19426957    0.50000000    0.40030000
opls_642-3    C    0.19426982    0.61737931    0.50000000    0.40030000
opls_642-4    C    0.38262951    0.57688923    0.50000000    0.40030000
opls_642-5    C    0.42311019    0.80573975    0.50000000    0.40030000
opls_142-6    C    0.48150998    0.05187038    0.50000000    -0.21570000
opls_142-7    C    0.94813965    0.42964013    0.50000000    -0.21570000
opls_142-8    C    0.57036004    0.51849984    0.50000000    -0.21570000
opls_142-9    C    0.51849968    0.94813997    0.50000000    -0.21570000
opls_142-10    C    0.05187021    0.57035987    0.50000000    -0.21570000
opls_142-11    C    0.42964014    0.48150948    0.50000000    -0.21570000
opls_641-12    N    0.71545023    0.24472040    0.50000000    -0.42910000
opls_641-13    N    0.75528954    0.47072972    0.50000000    -0.43510000
opls_641-14    N    0.52927976    0.28456024    0.50000000    -0.43510000
opls_641-15    N    0.28456033    0.75528996    0.50000000    -0.43510000
opls_641-16    N    0.24471960    0.52927960    0.50000000    -0.43510000
opls_641-17    N    0.47072990    0.71545012    0.50000000    -0.42910000
opls_144-18    H    0.37882035    0.02301013    0.50000000    0.24850000
opls_144-19    H    0.97700000    0.35580953    0.50000000    0.24850000
opls_144-20    H    0.64418970    0.62118966    0.50000000    0.24850000
opls_144-21    H    0.62118969    0.97699919    0.50000000    0.24850000
opls_144-22    H    0.02300935    0.64418943    0.50000000    0.24850000
opls_144-23    H    0.35580958    0.37881966    0.50000000    0.24850000
