#======================================================================
# Crystal Data Generated By AuToFF
#----------------------------------------------------------------------

data_AuToFF_phase_1

_cell_length_a                         21.1334
_cell_length_b                         21.1334
_cell_length_c                         4.5417
_cell_angle_alpha                      90.00
_cell_angle_beta                       90.00
_cell_angle_gamma                      120.00
_symmetry_space_group_name_H-M_alt     'P 1'
_symmetry_space_group_IT_number        1

loop_
_space_group_symop_operation_xyz
   'x, y, z'

loop_
   _atom_site_label
   _atom_site_type_symbol
   _atom_site_fract_x
   _atom_site_fract_y
   _atom_site_fract_z
   _atom_site_charge
opls_916-0    C    0.63529999    0.38065988    0.90843076    0.16240000
opls_145-1    C    0.66713006    0.44520016    0.73850981    -0.17560000
opls_145-2    C    0.63613002    0.49022023    0.73103904    -0.12390000
opls_700-3    C    0.57331999    0.47229984    0.89915010    0.05900000
opls_145-4    C    0.54173001    0.40830977    0.07267983    -0.11870000
opls_145-5    C    0.57208987    0.36268977    0.07439065    -0.17210000
opls_142-6    C    0.54124003    0.52036984    0.88829073    0.07400000
opls_145-7    C    0.45309995    0.55280007    0.08702028    0.19460000
opls_145-8    C    0.47781010    0.61902977    0.93177004    -0.17700000
opls_145-9    C    0.43907014    0.65665013    0.95039963    -0.17480000
opls_916-10    C    0.37509985    0.62924993    0.12261048    0.16250000
opls_145-11    C    0.35162023    0.56391029    0.28144968    -0.17470000
opls_145-12    C    0.39058993    0.52647024    0.26523989    -0.17480000
opls_916-13    C    0.61934031    0.25464019    0.90843076    0.16240000
opls_145-14    C    0.55479998    0.22193021    0.73850981    -0.17560000
opls_145-15    C    0.50978002    0.14590980    0.73103904    -0.12390000
opls_700-16    C    0.52770002    0.10101978    0.89915010    0.05900000
opls_145-17    C    0.59168987    0.13341995    0.07267983    -0.11870000
opls_145-18    C    0.63730995    0.20939993    0.07439065    -0.17210000
opls_142-19    C    0.47963010    0.02086978    0.88829073    0.07400000
opls_145-20    C    0.44720031    0.90030029    0.08702028    0.19460000
opls_145-21    C    0.38096988    0.85877983    0.93177004    -0.17700000
opls_145-22    C    0.34335027    0.78242012    0.95039963    -0.17480000
opls_916-23    C    0.37074973    0.74584992    0.12261048    0.16240000
opls_145-24    C    0.43609016    0.78771024    0.28144968    -0.17470000
opls_145-25    C    0.47353001    0.86412021    0.26523989    -0.17480000
opls_916-26    C    0.74536018    0.36469993    0.90843076    0.16240000
opls_145-27    C    0.77807023    0.33287018    0.73850981    -0.17210000
opls_145-28    C    0.85408996    0.36386997    0.73103904    -0.12390000
opls_700-29    C    0.89897971    0.42667984    0.89915010    0.05900000
opls_145-30    C    0.86658013    0.45827027    0.07267983    -0.11870000
opls_145-31    C    0.79060018    0.42791030    0.07439065    -0.17210000
opls_142-32    C    0.97913008    0.45875983    0.88829073    0.07400000
opls_145-33    C    0.09970001    0.54690019    0.08702028    0.19460000
opls_145-34    C    0.14121975    0.52218985    0.93177004    -0.17700000
opls_145-35    C    0.21758033    0.56093030    0.95039963    -0.17480000
opls_916-36    C    0.25414994    0.62490015    0.12261048    0.16240000
opls_145-37    C    0.21228989    0.64838002    0.28144968    -0.17450000
opls_145-38    C    0.13587987    0.60941009    0.26523989    -0.17480000
opls_750-39    N    0.48938983    0.51066000    0.07227910    -0.32020000
opls_750-40    N    0.48934005    0.97873026    0.07227910    -0.32010000
opls_750-41    N    0.02126992    0.51061028    0.07227910    -0.32020000
opls_239-42    N    0.66667032    0.33333024    0.91059956    -0.14290000
opls_239-43    N    0.33332995    0.66667031    0.13064932    -0.14290000
opls_146-44    H    0.71586000    0.46039025    0.61078010    0.12540000
opls_146-45    H    0.66124985    0.53909997    0.59414096    0.10990000
opls_146-46    H    0.49327018    0.39349997    0.20481097    0.11010000
opls_146-47    H    0.54630003    0.31321010    0.20448951    0.12540000
opls_144-48    H    0.56145027    0.56293007    0.72056939    0.10750000
opls_146-49    H    0.52665003    0.64228999    0.79660039    0.11650000
opls_146-50    H    0.45863973    0.70701987    0.82850034    0.12380000
opls_146-51    H    0.30270993    0.54168001    0.41511108    0.12190000
opls_146-52    H    0.37187014    0.47616006    0.38912962    0.11400000
opls_146-53    H    0.53961012    0.25547015    0.61078010    0.12220000
opls_146-54    H    0.46090001    0.12215018    0.59414096    0.10990000
opls_146-55    H    0.60650022    0.09977019    0.20481097    0.11000000
opls_146-56    H    0.68679028    0.23309015    0.20448951    0.12540000
opls_144-57    H    0.43706974    0.99851984    0.72056939    0.10750000
opls_146-58    H    0.35770993    0.88436001    0.79660039    0.11650000
opls_146-59    H    0.29298013    0.75162031    0.82850034    0.12380000
opls_146-60    H    0.45831989    0.76103018    0.41511108    0.12190000
opls_146-61    H    0.52383998    0.89571010    0.38912962    0.11400000
opls_146-62    H    0.74453016    0.28414015    0.61078010    0.12540000
opls_146-63    H    0.87785013    0.33874985    0.59414096    0.10990000
opls_146-64    H    0.90023007    0.50672984    0.20481097    0.11000000
opls_146-65    H    0.76690996    0.45370029    0.20448951    0.12540000
opls_144-66    H    0.00147999    0.43855009    0.72056939    0.10750000
opls_146-67    H    0.11564005    0.47334999    0.79660039    0.11650000
opls_146-68    H    0.24838014    0.54135983    0.82850034    0.12380000
opls_146-69    H    0.23896970    0.69728981    0.41511108    0.12190000
opls_146-70    H    0.10428987    0.62812984    0.38912962    0.11400000
