#======================================================================
# Crystal Data Generated By AuToFF
#----------------------------------------------------------------------

data_AuToFF_phase_1

_cell_length_a                         43.7510
_cell_length_b                         43.7510
_cell_length_c                         4.3340
_cell_angle_alpha                      90.00
_cell_angle_beta                       90.00
_cell_angle_gamma                      120.00
_symmetry_space_group_name_H-M_alt     'P 1'
_symmetry_space_group_IT_number        1

loop_
_space_group_symop_operation_xyz
   'x, y, z'

loop_
   _atom_site_label
   _atom_site_type_symbol
   _atom_site_fract_x
   _atom_site_fract_y
   _atom_site_fract_z
   _atom_site_charge
opls_145-0    C    0.36997999    0.68146990    0.13038994    -0.09640000
opls_700-1    C    0.37849993    0.74247997    0.13574066    0.06520000
opls_700-2    C    0.35535993    0.70361008    0.13068066    0.06860000
opls_700-3    C    0.42179003    0.81663987    0.15491001    0.04040000
opls_523-4    C    0.39125998    0.80076000    0.97152054    -0.08820000
opls_145-5    C    0.36994004    0.76413004    0.96053992    -0.11020000
opls_145-6    C    0.40902998    0.75821996    0.31939086    -0.08820000
opls_523-7    C    0.43051010    0.79488000    0.32880018    -0.09090000
opls_700-8    C    0.47867982    0.97650984    0.66769036    0.07670000
opls_523-9    C    0.44219991    0.95510997    0.71198892    -0.08820000
opls_522-10    C    0.42472986    0.92025992    0.60734887    -0.13150000
opls_521-11    C    0.44345002    0.90637982    0.45763959    0.17750000
opls_700-12    C    0.48032013    0.92727005    0.42041071    -0.07420000
opls_523-13    C    0.49752000    0.96240988    0.52230042    -0.09640000
opls_521-14    C    0.44320989    0.85663989    0.16266036    0.20150000
opls_522-15    C    0.48121007    0.87193992    0.28119059    -0.18150000
opls_166-16    C    0.50117982    0.91234981    0.26601061    0.26770000
opls_142-17    C    0.56317993    0.94454001    0.23361098    0.23200000
opls_143-18    C    0.57283990    0.92000999    0.06667974    -0.37210000
opls_523-19    C    0.59676991    0.39406004    0.57260037    -0.11030000
opls_145-20    C    0.60950004    0.37092987    0.62033918    -0.11020000
opls_700-21    C    0.63789007    0.37993000    0.82173973    0.06510000
opls_145-22    C    0.65300991    0.41244984    0.97694047    -0.08850000
opls_523-23    C    0.64032000    0.43571989    0.92820951    -0.09100000
opls_143-24    C    0.67784988    0.57581999    0.37083987    -0.37210000
opls_700-25    C    0.51720986    0.50304992    0.75488002    0.07630000
opls_523-26    C    0.49979999    0.47017985    0.90380018    -0.08820000
opls_522-27    C    0.51695998    0.45088003    0.94895939    -0.13140000
opls_521-28    C    0.55148991    0.46402986    0.84302953    0.18090000
opls_700-29    C    0.57007997    0.49805988    0.71161975    -0.07140000
opls_523-30    C    0.55254993    0.51714988    0.66601061    -0.09520000
opls_521-31    C    0.59769999    0.45115003    0.65410937    0.20150000
opls_700-32    C    0.61237988    0.42695994    0.72092986    0.04270000
opls_522-33    C    0.62404999    0.49060003    0.69488925    -0.18150000
opls_166-34    C    0.60766010    0.51304003    0.59550992    0.26760000
opls_142-35    C    0.64402992    0.57353994    0.48852100    0.23140000
opls_700-36    C    0.70350992    0.34745000    0.85733964    0.06930000
opls_145-37    C    0.68067003    0.31081002    0.86035994    -0.09640000
opls_145-38    C    0.31853002    0.68850984    0.13038994    -0.09640000
opls_700-39    C    0.25751999    0.63602008    0.13574066    0.06520000
opls_700-40    C    0.29638998    0.65175004    0.13068066    0.06860000
opls_700-41    C    0.18335991    0.60515003    0.15491001    0.04040000
opls_523-42    C    0.19924011    0.59050005    0.97152054    -0.08820000
opls_145-43    C    0.23586988    0.60580984    0.96053992    -0.11020000
opls_145-44    C    0.24177991    0.65080993    0.31939086    -0.08820000
opls_523-45    C    0.20511997    0.63563000    0.32880018    -0.09090000
opls_700-46    C    0.02348997    0.50217000    0.66769036    0.07670000
opls_523-47    C    0.04489015    0.48709008    0.71198892    -0.08820000
opls_522-48    C    0.07973989    0.50446984    0.60734887    -0.13150000
opls_521-49    C    0.09361987    0.53706992    0.45763959    0.17750000
opls_700-50    C    0.07272993    0.55305008    0.42041071    -0.07420000
opls_523-51    C    0.03758998    0.53511001    0.52230042    -0.09640000
opls_521-52    C    0.14335994    0.58656994    0.16266036    0.20150000
opls_522-53    C    0.12806002    0.60926991    0.28119059    -0.18150000
opls_166-54    C    0.08764986    0.58882993    0.26601061    0.26770000
opls_142-55    C    0.05546000    0.61864006    0.23361098    0.23200000
opls_143-56    C    0.07999001    0.65283002    0.06667974    -0.37210000
opls_523-57    C    0.60594008    0.20271009    0.57260037    -0.11030000
opls_145-58    C    0.62906988    0.23856991    0.62033918    -0.11020000
opls_700-59    C    0.62007003    0.25795999    0.82173973    0.06510000
opls_145-60    C    0.58754996    0.24055991    0.97694047    -0.08850000
opls_523-61    C    0.56428010    0.20460006    0.92820951    -0.09100000
opls_143-62    C    0.42417991    0.10202990    0.37083987    -0.37210000
opls_700-63    C    0.49694988    0.01415987    0.75488002    0.07630000
opls_523-64    C    0.52981999    0.02962010    0.90380018    -0.08820000
opls_522-65    C    0.54912013    0.06608008    0.94895939    -0.13140000
opls_521-66    C    0.53596990    0.08745990    0.84302953    0.18090000
opls_700-67    C    0.50193992    0.07201999    0.71161975    -0.07140000
opls_523-68    C    0.48285009    0.03540006    0.66601061    -0.09520000
opls_521-69    C    0.54884991    0.14654991    0.65410937    0.20150000
opls_700-70    C    0.57304008    0.18542007    0.72092986    0.04270000
opls_522-71    C    0.50939990    0.13344997    0.69488925    -0.18150000
opls_166-72    C    0.48696003    0.09461993    0.59550992    0.26760000
opls_142-73    C    0.42646007    0.07049001    0.48852100    0.23140000
opls_700-74    C    0.65254992    0.35606005    0.85733964    0.06930000
opls_145-75    C    0.68918998    0.36985992    0.86035994    -0.09650000
opls_145-76    C    0.31149008    0.63001999    0.13038994    -0.09640000
opls_700-77    C    0.36398007    0.62149995    0.13574066    0.06520000
opls_700-78    C    0.34824986    0.64463988    0.13068066    0.06860000
opls_700-79    C    0.39484993    0.57820984    0.15491001    0.04030000
opls_523-80    C    0.40949991    0.60873995    0.97152054    -0.08820000
opls_145-81    C    0.39418994    0.63005985    0.96053992    -0.11020000
opls_145-82    C    0.34918998    0.59096984    0.31939086    -0.08820000
opls_523-83    C    0.36436992    0.56949000    0.32880018    -0.09090000
opls_700-84    C    0.49782984    0.52131990    0.66769036    0.07670000
opls_523-85    C    0.51290994    0.55779995    0.71198892    -0.08820000
opls_522-86    C    0.49552989    0.57526997    0.60734887    -0.13150000
opls_521-87    C    0.46292998    0.55655000    0.45763959    0.17750000
opls_700-88    C    0.44694994    0.51967987    0.42041071    -0.07420000
opls_523-89    C    0.46488990    0.50247984    0.52230042    -0.09640000
opls_521-90    C    0.41343004    0.55678991    0.16266036    0.20150000
opls_522-91    C    0.39073001    0.51878991    0.28119059    -0.18150000
opls_166-92    C    0.41116995    0.49881999    0.26601061    0.26770000
opls_142-93    C    0.38136007    0.43681993    0.23361098    0.23200000
opls_143-94    C    0.34717009    0.42715999    0.06667974    -0.37210000
opls_523-95    C    0.79729000    0.40322987    0.57260037    -0.11030000
opls_145-96    C    0.76142995    0.39049995    0.62033918    -0.11020000
opls_700-97    C    0.74203990    0.36211001    0.82173973    0.06510000
opls_145-98    C    0.75944000    0.34698998    0.97694047    -0.08860000
opls_523-99    C    0.79540013    0.35968005    0.92820951    -0.09110000
opls_143-100    C    0.89796998    0.32215011    0.37083987    -0.37210000
opls_700-101    C    0.98583990    0.48278995    0.75488002    0.07630000
opls_523-102    C    0.97038002    0.50020006    0.90380018    -0.08820000
opls_522-103    C    0.93391989    0.48303988    0.94895939    -0.13140000
opls_521-104    C    0.91254006    0.44850998    0.84302953    0.18090000
opls_700-105    C    0.92797998    0.42991986    0.71161975    -0.07140000
opls_523-106    C    0.96459998    0.44745006    0.66601061    -0.09520000
opls_521-107    C    0.85345009    0.40230006    0.65410937    0.20140000
opls_700-108    C    0.81458004    0.38761999    0.72092986    0.04270000
opls_522-109    C    0.86654989    0.37595000    0.69488925    -0.18150000
opls_166-110    C    0.90538009    0.39234004    0.59550992    0.26760000
opls_142-111    C    0.92951002    0.35597005    0.48852100    0.23140000
opls_700-112    C    0.64393993    0.29648995    0.85733964    0.06930000
opls_145-113    C    0.63013999    0.31933006    0.86035994    -0.09640000
opls_238-114    N    0.42508994    0.87065988    0.34852100    -0.36930000
opls_238-115    N    0.56695990    0.44189997    0.84751038    -0.36940000
opls_238-116    N    0.12933992    0.55442988    0.34852100    -0.36920000
opls_238-117    N    0.55809995    0.12506004    0.84751038    -0.36940000
opls_238-118    N    0.44557000    0.57490998    0.34852100    -0.36930000
opls_238-119    N    0.87493992    0.43303999    0.84751038    -0.36940000
opls_180-120    O    0.53364997    0.92438983    0.42487079    -0.20300000
opls_180-121    O    0.62902009    0.54739996    0.72041071    -0.20370000
opls_180-122    O    0.07561003    0.60925988    0.42487079    -0.20300000
opls_180-123    O    0.45259991    0.08162002    0.72041071    -0.20370000
opls_180-124    O    0.39074010    0.46635003    0.42487079    -0.20300000
opls_180-125    O    0.91838000    0.37098002    0.72041071    -0.20370000
opls_146-126    H    0.39986006    0.69334997    0.12991001    0.04350000
opls_526-127    H    0.38363003    0.81783994    0.82919935    0.04350000
opls_146-128    H    0.34538990    0.75160995    0.80853946    0.04350000
opls_146-129    H    0.41645998    0.74103999    0.46248039    0.04350000
opls_526-130    H    0.45525008    0.80716996    0.47853946    0.04350000
opls_526-131    H    0.42670005    0.96614997    0.83382095    0.04350000
opls_525-132    H    0.39507003    0.90295987    0.64371943    0.04350000
opls_526-133    H    0.52718991    0.97955000    0.48559068    0.04350000
opls_525-134    H    0.49085000    0.85349997    0.36466082    0.04350000
opls_185-135    H    0.57564987    0.97446996    0.22467928    0.02350000
opls_144-136    H    0.55122991    0.89420995    0.96383018    0.09960000
opls_144-137    H    0.60170000    0.92739990    0.04425012    0.09960000
opls_526-138    H    0.57342004    0.38632993    0.41155053    0.04350000
opls_146-139    H    0.59685000    0.34445999    0.49541071    0.04350000
opls_146-140    H    0.67581006    0.42005010    0.14418090    0.04350000
opls_526-141    H    0.65261992    0.46194986    0.05673973    0.04350000
opls_144-142    H    0.67656997    0.55622009    0.19071989    0.09960000
opls_144-143    H    0.70448982    0.59712986    0.46272035    0.09960000
opls_526-144    H    0.47153993    0.45913985    0.98841024    0.04350000
opls_525-145    H    0.50282003    0.42432992    0.07245039    0.04350000
opls_526-146    H    0.56702997    0.54444004    0.55560914    0.04350000
opls_525-147    H    0.65162003    0.49958986    0.78841947    0.04350000
opls_185-148    H    0.63049983    0.58898987    0.41856945    0.02350000
opls_146-149    H    0.69188989    0.29224999    0.86532995    0.04350000
opls_910-150    H    0.39676008    0.85326006    0.40485002    0.25440000
opls_910-151    H    0.86252994    0.44442996    0.99665898    0.25440000
opls_146-152    H    0.30664981    0.70650983    0.12991001    0.04350000
opls_526-153    H    0.18215995    0.56579003    0.82919935    0.04350000
opls_146-154    H    0.24839001    0.59377986    0.80853946    0.04350000
opls_146-155    H    0.25895999    0.67541993    0.46248039    0.04350000
opls_526-156    H    0.19282992    0.64807989    0.47853946    0.04350000
opls_526-157    H    0.03385000    0.46055000    0.83382095    0.04350000
opls_525-158    H    0.09703987    0.49210995    0.64371943    0.04350000
opls_526-159    H    0.02044996    0.54763987    0.48559068    0.04350000
opls_525-160    H    0.14649996    0.63735000    0.36466082    0.04350000
opls_185-161    H    0.02553003    0.60118006    0.22467928    0.02350000
opls_144-162    H    0.10578997    0.65702987    0.96383018    0.09960000
opls_144-163    H    0.07259999    0.67429007    0.04425012    0.09960000
opls_526-164    H    0.61366999    0.18708993    0.41155053    0.04350000
opls_146-165    H    0.65553998    0.25239011    0.49541071    0.04350000
opls_146-166    H    0.57995007    0.25576994    0.14418090    0.04350000
opls_526-167    H    0.53804996    0.19066005    0.05673973    0.04350000
opls_144-168    H    0.44377997    0.12034000    0.19071989    0.09950000
opls_144-169    H    0.40286990    0.10735988    0.46272035    0.09960000
opls_526-170    H    0.54086003    0.01238998    0.98841024    0.04290000
opls_525-171    H    0.57567006    0.07849012    0.07245039    0.04350000
opls_526-172    H    0.45556000    0.02258991    0.55560914    0.04350000
opls_525-173    H    0.50040007    0.15203006    0.78841947    0.04290000
opls_185-174    H    0.41101005    0.04150994    0.41856945    0.02350000
opls_146-175    H    0.70775008    0.39963995    0.86532995    0.04350000
opls_910-176    H    0.14674003    0.54349994    0.40485002    0.25440000
opls_910-177    H    0.55557007    0.41808993    0.99665898    0.25220000
opls_146-178    H    0.29349000    0.60013993    0.12991001    0.04350000
opls_526-179    H    0.43421002    0.61637003    0.82919935    0.04350000
opls_146-180    H    0.40621996    0.65460993    0.80853946    0.04350000
opls_146-181    H    0.32458003    0.58354007    0.46248039    0.04350000
opls_526-182    H    0.35191987    0.54474989    0.47853946    0.04350000
opls_526-183    H    0.53944995    0.57330003    0.83382095    0.04350000
opls_525-184    H    0.50788998    0.60492992    0.64371943    0.04350000
opls_526-185    H    0.45236000    0.47280987    0.48559068    0.04350000
opls_525-186    H    0.36265003    0.50915003    0.36466082    0.04350000
opls_185-187    H    0.39882009    0.42434998    0.22467928    0.02350000
opls_144-188    H    0.34296992    0.44876995    0.96383018    0.09910000
opls_144-189    H    0.32571008    0.39830000    0.04425012    0.09960000
opls_526-190    H    0.81290984    0.42657988    0.41155053    0.04350000
opls_146-191    H    0.74761001    0.40314990    0.49541071    0.04350000
opls_146-192    H    0.74423003    0.32418999    0.14418090    0.04350000
opls_526-193    H    0.80933996    0.34738006    0.05673973    0.04350000
opls_144-194    H    0.87965990    0.32342988    0.19071989    0.09960000
opls_144-195    H    0.89263991    0.29550999    0.46272035    0.09960000
opls_526-196    H    0.98760998    0.52845988    0.98841024    0.04350000
opls_525-197    H    0.92150991    0.49717996    0.07245039    0.04350000
opls_526-198    H    0.97741003    0.43297005    0.55560914    0.04350000
opls_525-199    H    0.84797007    0.34838008    0.78841947    0.04350000
opls_185-200    H    0.95848999    0.36949992    0.41856945    0.02350000
opls_146-201    H    0.60036003    0.30811006    0.86532995    0.04350000
opls_910-202    H    0.45649989    0.60324000    0.40485002    0.25440000
opls_910-203    H    0.58191004    0.13748011    0.99665898    0.25220000
