#======================================================================
# Crystal Data Generated By AuToFF
#----------------------------------------------------------------------

data_AuToFF_phase_1

_cell_length_a                         34.6740
_cell_length_b                         34.6740
_cell_length_c                         3.4828
_cell_angle_alpha                      90.00
_cell_angle_beta                       90.00
_cell_angle_gamma                      120.00
_symmetry_space_group_name_H-M_alt     'P 1'
_symmetry_space_group_IT_number        1

loop_
_space_group_symop_operation_xyz
   'x, y, z'

loop_
   _atom_site_label
   _atom_site_type_symbol
   _atom_site_fract_x
   _atom_site_fract_y
   _atom_site_fract_z
   _atom_site_charge
opls_700-0    C    0.43007993    0.59139999    0.50000000    0.10340000
opls_522-1    C    0.40397010    0.54450996    0.50000000    -0.18010000
opls_521-2    C    0.42422001    0.51831024    0.50000000    0.04110000
opls_521-3    C    0.49683010    0.58476997    0.50000000    0.04120000
opls_522-4    C    0.47671007    0.61107026    0.50000000    -0.17700000
opls_261-5    C    0.49132006    0.51133021    0.50000000    0.17780000
opls_142-6    C    0.41081018    0.62124025    0.50000000    -0.18730000
opls_142-7    C    0.36704992    0.60738011    0.50000000    -0.22500000
opls_642-8    C    0.65014014    0.36147021    0.50000000    0.32380000
opls_700-9    C    0.40860009    0.83868024    0.50000000    0.10340000
opls_522-10    C    0.45549000    0.85946013    0.50000000    -0.18010000
opls_521-11    C    0.48169020    0.90591024    0.50000000    0.04110000
opls_521-12    C    0.41523000    0.91206005    0.50000000    0.04120000
opls_522-13    C    0.38893018    0.86564024    0.50000000    -0.17700000
opls_261-14    C    0.48867011    0.97999005    0.50000000    0.17780000
opls_142-15    C    0.37876002    0.78957000    0.50000000    -0.18730000
opls_142-16    C    0.39262015    0.75967013    0.50000000    -0.22500000
opls_642-17    C    0.63853017    0.28867019    0.50000000    0.32380000
opls_700-18    C    0.16132015    0.56992010    0.50000000    0.10340000
opls_522-19    C    0.14054007    0.59603025    0.50000000    -0.18010000
opls_521-20    C    0.09409013    0.57578019    0.50000000    0.04110000
opls_521-21    C    0.08793990    0.50316998    0.50000000    0.04120000
opls_522-22    C    0.13436008    0.52329016    0.50000000    -0.17700000
opls_261-23    C    0.02000999    0.50868007    0.50000000    0.17780000
opls_142-24    C    0.21042997    0.58919009    0.50000000    -0.18730000
opls_142-25    C    0.24033010    0.63295010    0.50000000    -0.22500000
opls_642-26    C    0.71132986    0.34985993    0.50000000    0.32380000
opls_700-27    C    0.56992007    0.40860001    0.50000000    0.10340000
opls_522-28    C    0.59602990    0.45549004    0.50000000    -0.18010000
opls_521-29    C    0.57578016    0.48169010    0.50000000    0.04110000
opls_521-30    C    0.50316990    0.41523003    0.50000000    0.04120000
opls_522-31    C    0.52329009    0.38893007    0.50000000    -0.17700000
opls_261-32    C    0.50868010    0.48867012    0.50000000    0.17780000
opls_142-33    C    0.58918999    0.37876009    0.50000000    -0.18730000
opls_142-34    C    0.63295025    0.39262023    0.50000000    -0.22500000
opls_642-35    C    0.34986003    0.63853012    0.50000000    0.32380000
opls_700-36    C    0.59140008    0.16132009    0.50000000    0.10340000
opls_522-37    C    0.54451000    0.14053987    0.50000000    -0.18010000
opls_521-38    C    0.51830997    0.09409009    0.50000000    0.04110000
opls_521-39    C    0.58477000    0.08793995    0.50000000    0.04120000
opls_522-40    C    0.61106999    0.13436009    0.50000000    -0.17700000
opls_261-41    C    0.51132989    0.02000995    0.50000000    0.17780000
opls_142-42    C    0.62123998    0.21043000    0.50000000    -0.18730000
opls_142-43    C    0.60737985    0.24032987    0.50000000    -0.22500000
opls_642-44    C    0.36147000    0.71133015    0.50000000    0.32380000
opls_700-45    C    0.83868002    0.43008023    0.50000000    0.10340000
opls_522-46    C    0.85946010    0.40397009    0.50000000    -0.18010000
opls_521-47    C    0.90591004    0.42422014    0.50000000    0.04110000
opls_521-48    C    0.91206010    0.49683002    0.50000000    0.04120000
opls_522-49    C    0.86564008    0.47671017    0.50000000    -0.17700000
opls_261-50    C    0.97999001    0.49131993    0.50000000    0.17780000
opls_142-51    C    0.78957003    0.41080991    0.50000000    -0.18730000
opls_142-52    C    0.75966990    0.36704990    0.50000000    -0.22500000
opls_642-53    C    0.28867014    0.65014007    0.50000000    0.32380000
opls_239-54    N    0.47062015    0.53837014    0.50000000    -0.05900000
opls_641-55    N    0.69466992    0.37784995    0.50000000    -0.45480000
opls_239-56    N    0.46163007    0.93225016    0.50000000    -0.05900000
opls_641-57    N    0.62215001    0.31682005    0.50000000    -0.45480000
opls_239-58    N    0.06774994    0.52938003    0.50000000    -0.05900000
opls_641-59    N    0.68318008    0.30532999    0.50000000    -0.45480000
opls_239-60    N    0.52938002    0.46163019    0.50000000    -0.05900000
opls_641-61    N    0.30533008    0.62215005    0.50000000    -0.45480000
opls_239-62    N    0.53837009    0.06775017    0.50000000    -0.05900000
opls_641-63    N    0.37784999    0.68317995    0.50000000    -0.45480000
opls_239-64    N    0.93225006    0.47061997    0.50000000    -0.05900000
opls_641-65    N    0.31681992    0.69467001    0.50000000    -0.45480000
opls_525-66    H    0.36808999    0.52760006    0.50000000    0.10510000
opls_524-67    H    0.40373019    0.48237012    0.50000000    0.09080000
opls_524-68    H    0.53279992    0.60054994    0.50000000    0.09080000
opls_525-69    H    0.49767013    0.64695010    0.50000000    0.11190000
opls_144-70    H    0.43411008    0.65677009    0.50000000    0.10990000
opls_144-71    H    0.34237994    0.57249998    0.50000000    0.08740000
opls_525-72    H    0.47240002    0.84049019    0.50000000    0.10510000
opls_524-73    H    0.51762998    0.92136020    0.50000000    0.09080000
opls_524-74    H    0.39945005    0.93225016    0.50000000    0.09080000
opls_525-75    H    0.35304997    0.85072011    0.50000000    0.11190000
opls_144-76    H    0.34322989    0.77733997    0.50000000    0.10990000
opls_144-77    H    0.42750017    0.76988007    0.50000000    0.08740000
opls_525-78    H    0.15951016    0.63191009    0.50000000    0.10510000
opls_524-79    H    0.07864000    0.59627002    0.50000000    0.09080000
opls_524-80    H    0.06775020    0.46720023    0.50000000    0.09080000
opls_525-81    H    0.14928007    0.50233012    0.50000000    0.11190000
opls_144-82    H    0.22266003    0.56588994    0.50000000    0.10990000
opls_144-83    H    0.23011989    0.65761995    0.50000000    0.08740000
opls_525-84    H    0.63191001    0.47239994    0.50000000    0.10510000
opls_524-85    H    0.59626997    0.51763022    0.50000000    0.09080000
opls_524-86    H    0.46720008    0.39945006    0.50000000    0.09080000
opls_525-87    H    0.50232987    0.35304990    0.50000000    0.11190000
opls_144-88    H    0.56588992    0.34322991    0.50000000    0.10990000
opls_144-89    H    0.65762006    0.42750002    0.50000000    0.08740000
opls_525-90    H    0.52760014    0.15951015    0.50000000    0.10510000
opls_524-91    H    0.48237019    0.07864013    0.50000000    0.09080000
opls_524-92    H    0.60055011    0.06775017    0.50000000    0.09080000
opls_525-93    H    0.64695003    0.14927989    0.50000000    0.11190000
opls_144-94    H    0.65677011    0.22266003    0.50000000    0.10990000
opls_144-95    H    0.57249983    0.23011993    0.50000000    0.08740000
opls_525-96    H    0.84048984    0.36808991    0.50000000    0.10510000
opls_524-97    H    0.92136000    0.40372998    0.50000000    0.09080000
opls_524-98    H    0.93224997    0.53280011    0.50000000    0.09080000
opls_525-99    H    0.85072009    0.49767022    0.50000000    0.11190000
opls_144-100    H    0.77733997    0.43411006    0.50000000    0.10990000
opls_144-101    H    0.76988011    0.34238005    0.50000000    0.08740000
