#======================================================================
# Crystal Data Generated By AuToFF
#----------------------------------------------------------------------

data_AuToFF_phase_1

_cell_length_a                         30.2094
_cell_length_b                         3.5107
_cell_length_c                         31.4935
_cell_angle_alpha                      90.00
_cell_angle_beta                       116.16
_cell_angle_gamma                      90.00
_symmetry_space_group_name_H-M_alt     'P 1'
_symmetry_space_group_IT_number        1

loop_
_space_group_symop_operation_xyz
   'x, y, z'

loop_
   _atom_site_label
   _atom_site_type_symbol
   _atom_site_fract_x
   _atom_site_fract_y
   _atom_site_fract_z
   _atom_site_charge
opls_700-0    C    0.48798996    0.49998861    0.52780003    0.02680000
opls_700-1    C    0.53565004    0.49998861    0.52779012    0.02750000
opls_145-2    C    0.57857000    0.49998861    0.57240006    -0.23440000
opls_166-3    C    0.57475007    0.49998861    0.61495003    0.16060000
opls_166-4    C    0.52901993    0.49998861    0.61495003    0.16060000
opls_145-5    C    0.48608016    0.49998861    0.57240997    -0.23440000
opls_700-6    C    0.44417993    0.49998861    0.48394997    0.02750000
opls_700-7    C    0.44769001    0.49998861    0.43980983    0.02830000
opls_145-8    C    0.39614008    0.49998861    0.48244010    -0.23440000
opls_166-9    C    0.35365022    0.49998861    0.43955016    0.16440000
opls_166-10    C    0.35694011    0.49998861    0.39717001    0.16060000
opls_145-11    C    0.40292991    0.49998861    0.39676990    -0.23440000
opls_700-12    C    0.53915004    0.49998861    0.48394997    0.02770000
opls_700-13    C    0.49505010    0.49998861    0.43980983    0.02640000
opls_145-14    C    0.50023017    0.49998861    0.39675999    -0.23440000
opls_166-15    C    0.54659995    0.49998861    0.39714985    0.16060000
opls_166-16    C    0.58885019    0.49998861    0.43953000    0.16270000
opls_145-17    C    0.58578991    0.49998861    0.48242984    -0.23440000
opls_700-18    C    0.85345981    0.49998861    0.13138991    0.02830000
opls_700-19    C    0.80577995    0.49998861    0.13138991    0.02830000
opls_145-20    C    0.76285991    0.49998861    0.08678987    -0.23440000
opls_166-21    C    0.76670011    0.49998861    0.04425016    0.16060000
opls_166-22    C    0.81244018    0.49998861    0.04425016    0.16060000
opls_145-23    C    0.85537979    0.49998861    0.08678987    -0.23440000
opls_700-24    C    0.89730012    0.49998861    0.17522015    0.02830000
opls_700-25    C    0.89370009    0.49998861    0.21931006    0.02770000
opls_145-26    C    0.94539990    0.49998861    0.17680998    -0.23440000
opls_166-27    C    0.98791011    0.49998861    0.21976005    0.16060000
opls_166-28    C    0.98437990    0.49998861    0.26201992    0.16440000
opls_145-29    C    0.93839001    0.49998861    0.26237015    -0.23440000
opls_700-30    C    0.80222003    0.49998861    0.17520989    0.02640000
opls_700-31    C    0.84634000    0.49998861    0.21931006    0.02720000
opls_145-32    C    0.84123011    0.49998861    0.26235989    -0.23440000
opls_166-33    C    0.79492016    0.49998861    0.26200011    0.16440000
opls_166-34    C    0.75254000    0.49998861    0.21973988    0.16060000
opls_145-35    C    0.75556999    0.49998861    0.17680007    -0.23440000
opls_145-36    C    0.73125011    0.49998861    0.91741005    -0.27280000
opls_145-37    C    0.73726026    0.49998861    0.84245013    -0.20700000
opls_145-38    C    0.67936016    0.49998861    0.89215006    -0.14260000
opls_145-39    C    0.75995999    0.49998861    0.89219995    -0.12580000
opls_700-40    C    0.65610993    0.49998861    0.84217985    0.05830000
opls_145-41    C    0.61021000    0.49998861    0.74179014    -0.27280000
opls_145-42    C    0.60420026    0.49998861    0.81674016    -0.20700000
opls_145-43    C    0.66209988    0.49998861    0.76703987    -0.14260000
opls_145-44    C    0.58150004    0.49998861    0.76698999    -0.12580000
opls_700-45    C    0.68535010    0.49998861    0.81701008    0.05830000
opls_145-46    C    0.70048988    0.49998861    0.30474995    -0.29100000
opls_145-47    C    0.61942011    0.49998861    0.30529015    -0.07850000
opls_716-48    C    0.72244009    0.49998861    0.35465012    0.12780000
opls_145-49    C    0.64843007    0.49998861    0.28035988    -0.07820000
opls_716-50    C    0.69379010    0.49998861    0.37932002    0.12690000
opls_145-51    C    0.64179015    0.49998861    0.35529999    -0.29180000
opls_145-52    C    0.11809996    0.49998861    0.30477012    -0.29120000
opls_145-53    C    0.22325999    0.49998861    0.35533996    -0.29180000
opls_145-54    C    0.14770993    0.49998861    0.28034007    -0.07850000
opls_716-55    C    0.19338005    0.49998861    0.37936990    0.12760000
opls_145-56    C    0.19963000    0.49998861    0.30534003    -0.07820000
opls_716-57    C    0.14204004    0.49998861    0.35467983    0.12690000
opls_167-58    O    0.53353015    0.49998861    0.65954016    -0.37380000
opls_167-59    O    0.61122013    0.49998861    0.65952990    -0.37460000
opls_167-60    O    0.31166016    0.49998861    0.36019010    -0.37430000
opls_167-61    O    0.30616019    0.49998861    0.43218015    -0.37410000
opls_167-62    O    0.62955994    0.49998861    0.43215008    -0.37410000
opls_167-63    O    0.55786995    0.49998861    0.36016994    -0.37390000
opls_167-64    O    0.80792003    0.49998861    0.99966003    -0.37460000
opls_167-65    O    0.73024015    0.49998861    0.99966994    -0.37460000
opls_167-66    O    0.02946993    0.49998861    0.29914983    -0.37400000
opls_167-67    O    0.03554987    0.49998861    0.22743996    -0.37430000
opls_167-68    O    0.71196003    0.49998861    0.22742015    -0.37340000
opls_167-69    O    0.78396009    0.49998861    0.29913002    -0.37400000
MOF2_B_2-70    B    0.58599990    0.49998861    0.68916987    0.52700000
MOF2_B_2-71    B    0.27802013    0.49998861    0.38144014    0.52700000
MOF2_B_2-72    B    0.61104007    0.49998861    0.38141007    0.52710000
MOF2_B_2-73    B    0.75546013    0.49998861    0.97002007    0.52710000
MOF2_B_2-74    B    0.06337993    0.49998861    0.27824011    0.52700000
MOF2_B_2-75    B    0.73081995    0.49998861    0.27821004    0.52700000
opls_146-76    H    0.61362014    0.49998861    0.57592995    0.22530000
opls_146-77    H    0.45428000    0.49998861    0.57595011    0.22530000
opls_146-78    H    0.38999022    0.49998861    0.51162017    0.22540000
opls_146-79    H    0.40175999    0.49998861    0.36406986    0.22530000
opls_146-80    H    0.47134007    0.49998861    0.36405995    0.22530000
opls_146-81    H    0.61877000    0.49998861    0.51160000    0.22530000
opls_146-82    H    0.72781995    0.49998861    0.08326989    0.22530000
opls_146-83    H    0.88718997    0.49998861    0.08328015    0.22530000
opls_146-84    H    0.95158021    0.49998861    0.14765007    0.22530000
opls_146-85    H    0.93957003    0.49998861    0.29506984    0.22530000
opls_146-86    H    0.87010986    0.49998861    0.29506984    0.22530000
opls_146-87    H    0.72258990    0.49998861    0.14762991    0.22530000
opls_146-88    H    0.75894025    0.49998861    0.82501015    0.22500000
opls_146-89    H    0.65828002    0.49998861    0.91019003    0.22500000
opls_146-90    H    0.79766021    0.49998861    0.90981999    0.22500000
opls_146-91    H    0.58251002    0.49998861    0.83418013    0.22500000
opls_146-92    H    0.68318009    0.49998861    0.74899000    0.22500000
opls_146-93    H    0.54380024    0.49998861    0.74936004    0.22500000
opls_146-94    H    0.58182012    0.49998861    0.28655008    0.22500000
opls_146-95    H    0.63113997    0.49998861    0.24417984    0.22500000
opls_146-96    H    0.13178008    0.49998861    0.24415012    0.22500000
opls_146-97    H    0.22003994    0.49998861    0.28663994    0.22510000
opls_750-98    N    0.77073009    0.49998861    0.38411002    -0.38470000
opls_750-99    N    0.72184999    0.49998861    0.42621989    -0.38470000
opls_750-100    N    0.20841990    0.49998861    0.42625987    -0.38470000
opls_750-101    N    0.12082989    0.49998861    0.38414999    -0.38470000
opls_202-102    S    0.78283018    0.49998861    0.44170991    0.40200000
opls_202-103    S    0.16167012    0.49998861    0.44173998    0.40200000
