#======================================================================
# Crystal Data Generated By AuToFF
#----------------------------------------------------------------------

data_AuToFF_phase_1

_cell_length_a                         37.9700
_cell_length_b                         37.9700
_cell_length_c                         3.4400
_cell_angle_alpha                      90.00
_cell_angle_beta                       90.00
_cell_angle_gamma                      120.00
_symmetry_space_group_name_H-M_alt     'P 1'
_symmetry_space_group_IT_number        1

loop_
_space_group_symop_operation_xyz
   'x, y, z'

loop_
   _atom_site_label
   _atom_site_type_symbol
   _atom_site_fract_x
   _atom_site_fract_y
   _atom_site_fract_z
   _atom_site_charge
opls_142-0    C    0.40811011    0.55391999    0.50000000    0.01340000
opls_145-1    C    0.32028011    0.62515015    0.50000000    -0.16270000
opls_700-2    C    0.36226994    0.65340003    0.50000000    -0.03330000
opls_234-3    C    0.39391991    0.64075002    0.50000000    0.46510000
opls_700-4    C    0.44146013    0.54461001    0.50000000    0.00800000
opls_521-5    C    0.43248009    0.50411003    0.50000000    0.08530000
opls_523-6    C    0.48240012    0.57543021    0.50000000    -0.11240000
opls_522-7    C    0.51322011    0.56556006    0.50000000    -0.16150000
opls_521-8    C    0.50302010    0.52444000    0.50000000    0.15800000
opls_142-9    C    0.61700993    0.46626005    0.50000000    0.01340000
opls_145-10    C    0.68527012    0.37569010    0.50000000    -0.16260000
opls_700-11    C    0.64252004    0.35223997    0.50000000    -0.03360000
opls_234-12    C    0.61580997    0.37093992    0.50000000    0.46500000
opls_700-13    C    0.58821007    0.48164005    0.50000000    0.00850000
opls_523-14    C    0.60295010    0.52356994    0.50000000    -0.11400000
opls_521-15    C    0.54600013    0.45528021    0.50000000    0.07680000
opls_522-16    C    0.57604008    0.53854000    0.50000000    -0.16220000
opls_521-17    C    0.53382991    0.51118998    0.50000000    0.16650000
opls_142-18    C    0.44608010    0.85419022    0.50000000    0.01340000
opls_145-19    C    0.37485002    0.69513013    0.50000000    -0.16270000
opls_700-20    C    0.34660016    0.70887006    0.50000000    -0.03330000
opls_234-21    C    0.35925009    0.75317018    0.50000000    0.46510000
opls_700-22    C    0.45538996    0.89684998    0.50000000    0.00800000
opls_521-23    C    0.49589015    0.92837024    0.50000000    0.08530000
opls_523-24    C    0.42457012    0.90697011    0.50000000    -0.11240000
opls_522-25    C    0.43444003    0.94766016    0.50000000    -0.16150000
opls_521-26    C    0.47556000    0.97858010    0.50000000    0.15800000
opls_142-27    C    0.53374004    0.15075002    0.50000000    0.01340000
opls_145-28    C    0.62430984    0.30957991    0.50000000    -0.16270000
opls_700-29    C    0.64775994    0.29027996    0.50000000    -0.03360000
opls_234-30    C    0.62906004    0.24487014    0.50000000    0.46500000
opls_700-31    C    0.51836007    0.10657002    0.50000000    0.00850000
opls_523-32    C    0.47643004    0.07937997    0.50000000    -0.11400000
opls_521-33    C    0.54471996    0.09071988    0.50000000    0.07680000
opls_522-34    C    0.46146001    0.03749995    0.50000000    -0.16220000
opls_521-35    C    0.48881011    0.02263998    0.50000000    0.16650000
opls_142-36    C    0.14580994    0.59189009    0.50000000    0.01340000
opls_145-37    C    0.30487002    0.67972003    0.50000000    -0.16270000
opls_700-38    C    0.29113005    0.63773022    0.50000000    -0.03330000
opls_234-39    C    0.24683015    0.60608011    0.50000000    0.46510000
opls_700-40    C    0.10314991    0.55854001    0.50000000    0.00800000
opls_521-41    C    0.07162992    0.56752004    0.50000000    0.08530000
opls_523-42    C    0.09302991    0.51759999    0.50000000    -0.11240000
opls_522-43    C    0.05234001    0.48678009    0.50000000    -0.16150000
opls_521-44    C    0.02142005    0.49698020    0.50000000    0.15800000
opls_142-45    C    0.84925003    0.38298992    0.50000000    0.01340000
opls_145-46    C    0.69042004    0.31472999    0.50000000    -0.16270000
opls_700-47    C    0.70972002    0.35748007    0.50000000    -0.03360000
opls_234-48    C    0.75513000    0.38418994    0.50000000    0.46500000
opls_700-49    C    0.89342986    0.41178993    0.50000000    0.00850000
opls_523-50    C    0.92062012    0.39705008    0.50000000    -0.11400000
opls_521-51    C    0.90927991    0.45399991    0.50000000    0.07680000
opls_522-52    C    0.96249991    0.42396005    0.50000000    -0.16220000
opls_521-53    C    0.97735997    0.46617004    0.50000000    0.16650000
opls_238-54    N    0.38438008    0.60081021    0.50000000    -0.26470000
opls_750-55    N    0.41564008    0.59121010    0.50000000    -0.17610000
opls_520-56    N    0.46296000    0.49519995    0.50000000    -0.28590000
opls_238-57    N    0.63095993    0.41217006    0.50000000    -0.26470000
opls_520-58    N    0.52037009    0.47052001    0.50000000    -0.28580000
opls_750-59    N    0.60411000    0.42752999    0.50000000    -0.17590000
opls_238-60    N    0.39919011    0.78357010    0.50000000    -0.26480000
opls_750-61    N    0.40879000    0.82443015    0.50000000    -0.17610000
opls_520-62    N    0.50480005    0.96776022    0.50000000    -0.28590000
opls_238-63    N    0.58783012    0.21879009    0.50000000    -0.26480000
opls_520-64    N    0.52947996    0.04985010    0.50000000    -0.28590000
opls_750-65    N    0.57246993    0.17658010    0.50000000    -0.17580000
opls_238-66    N    0.21642996    0.61562000    0.50000000    -0.26470000
opls_750-67    N    0.17557007    0.58436005    0.50000000    -0.17600000
opls_520-68    N    0.03224011    0.53704013    0.50000000    -0.28580000
opls_238-69    N    0.78121010    0.36904015    0.50000000    -0.26480000
opls_520-70    N    0.95015010    0.47963019    0.50000000    -0.28590000
opls_750-71    N    0.82342007    0.39588991    0.50000000    -0.17580000
opls_236-72    O    0.42974996    0.66710012    0.50000000    -0.38680000
opls_236-73    O    0.57896008    0.34852012    0.50000000    -0.38370000
opls_236-74    O    0.33290001    0.76265016    0.50000000    -0.38680000
opls_236-75    O    0.65147988    0.23043988    0.50000000    -0.38380000
opls_236-76    O    0.23734992    0.57025002    0.50000000    -0.38680000
opls_236-77    O    0.76956003    0.42104000    0.50000000    -0.38370000
opls_144-78    H    0.37691007    0.52908009    0.50000000    0.12260000
opls_910-79    H    0.35438999    0.57705019    0.50000000    0.27240000
opls_146-80    H    0.30950007    0.59302016    0.50000000    0.12230000
opls_144-81    H    0.64939990    0.48780007    0.50000000    0.11140000
opls_910-82    H    0.66208005    0.43276005    0.50000000    0.27720000
opls_146-83    H    0.70028017    0.40836019    0.50000000    0.12230000
opls_524-84    H    0.40124014    0.47950003    0.50000000    0.10460000
opls_526-85    H    0.49065005    0.60716000    0.50000000    0.12130000
opls_525-86    H    0.54427993    0.59018009    0.50000000    0.10930000
opls_526-87    H    0.63538004    0.54481011    0.50000000    0.11800000
opls_524-88    H    0.53329994    0.42263992    0.50000000    0.10530000
opls_525-89    H    0.58872999    0.57107020    0.50000000    0.11930000
opls_144-90    H    0.47092005    0.84783009    0.50000000    0.12260000
opls_910-91    H    0.42295002    0.77734013    0.50000000    0.27240000
opls_146-92    H    0.40698010    0.71648008    0.50000000    0.12230000
opls_144-93    H    0.51220006    0.16160001    0.50000000    0.11140000
opls_910-94    H    0.56724001    0.22932015    0.50000000    0.27720000
opls_146-95    H    0.59164002    0.29192001    0.50000000    0.12230000
opls_524-96    H    0.52050000    0.92174006    0.50000000    0.10460000
opls_526-97    H    0.39284017    0.88349018    0.50000000    0.12120000
opls_525-98    H    0.40982022    0.95410027    0.50000000    0.10940000
opls_526-99    H    0.45518990    0.09056995    0.50000000    0.11800000
opls_524-100    H    0.57736002    0.11065998    0.50000000    0.10530000
opls_525-101    H    0.42893003    0.01765990    0.50000000    0.11930000
opls_144-102    H    0.15217003    0.62309012    0.50000000    0.12260000
opls_910-103    H    0.22265987    0.64560998    0.50000000    0.27250000
opls_146-104    H    0.28351999    0.69050007    0.50000000    0.12230000
opls_144-105    H    0.83840004    0.35059992    0.50000000    0.11140000
opls_910-106    H    0.77068009    0.33792010    0.50000000    0.27720000
opls_146-107    H    0.70807996    0.29972010    0.50000000    0.12240000
opls_524-108    H    0.07826001    0.59876021    0.50000000    0.10460000
opls_526-109    H    0.11650993    0.50935013    0.50000000    0.12120000
opls_525-110    H    0.04590001    0.45571995    0.50000000    0.10930000
opls_526-111    H    0.90943006    0.36461993    0.50000000    0.11800000
opls_524-112    H    0.88934004    0.46670010    0.50000000    0.10530000
opls_525-113    H    0.98234013    0.41127021    0.50000000    0.11930000
