#======================================================================
# Crystal Data Generated By AuToFF
#----------------------------------------------------------------------

data_AuToFF_phase_1

_cell_length_a                         3.6000
_cell_length_b                         29.2140
_cell_length_c                         29.2140
_cell_angle_alpha                      120.00
_cell_angle_beta                       90.00
_cell_angle_gamma                      90.00
_symmetry_space_group_name_H-M_alt     'P 1'
_symmetry_space_group_IT_number        1

loop_
_space_group_symop_operation_xyz
   'x, y, z'

loop_
   _atom_site_label
   _atom_site_type_symbol
   _atom_site_fract_x
   _atom_site_fract_y
   _atom_site_fract_z
   _atom_site_charge
opls_238-0    N    0.61111111    0.43725983    0.81016970    -0.32180000
opls_238-1    N    0.61111111    0.61096975    0.18866983    -0.31950000
opls_238-2    N    0.61111111    0.37290999    0.56273994    -0.32180000
opls_238-3    N    0.61111111    0.57769999    0.38902975    -0.31960000
opls_238-4    N    0.61111111    0.18982979    0.62709985    -0.32180000
opls_238-5    N    0.61111111    0.81132987    0.42230990    -0.31960000
opls_900-6    N    0.61111111    0.63591002    0.03216987    -0.13170000
opls_900-7    N    0.61111111    0.39625986    0.36409978    -0.13160000
opls_900-8    N    0.61111111    0.96784000    0.60373983    -0.13170000
opls_142-9    C    0.61111111    0.38444991    0.77785990    0.09910000
opls_916-10    C    0.61111111    0.46401987    0.86320986    0.17880000
opls_145-11    C    0.61111111    0.43818980    0.89177975    -0.22620000
opls_145-12    C    0.61111111    0.46830979    0.94532980    -0.22000000
opls_700-13    C    0.61111111    0.52495996    0.97314988    0.02890000
opls_700-14    C    0.61111111    0.55546998    0.94642979    0.00110000
opls_523-15    C    0.61111111    0.51947971    0.89041967    -0.25360000
opls_142-16    C    0.61111111    0.65817995    0.23202979    0.09910000
opls_523-17    C    0.61111111    0.59536998    0.13772017    0.17610000
opls_522-18    C    0.61111111    0.62613999    0.11343012    -0.28210000
opls_521-19    C    0.61111111    0.60576991    0.05756980    0.08830000
opls_700-20    C    0.61111111    0.54953995    0.02835012    -0.00040000
opls_523-21    C    0.61111111    0.51904999    0.05468997    -0.21940000
opls_145-22    C    0.61111111    0.54118011    0.10837994    -0.22630000
opls_142-23    C    0.61111111    0.39341993    0.61555008    0.09910000
opls_916-24    C    0.61111111    0.39919008    0.53597994    0.17870000
opls_145-25    C    0.61111111    0.45358997    0.56180991    -0.22620000
opls_145-26    C    0.61111111    0.47700977    0.53168983    -0.21960000
opls_700-27    C    0.61111111    0.44819013    0.47505007    0.02890000
opls_700-28    C    0.61111111    0.39096014    0.44453000    0.00110000
opls_523-29    C    0.61111111    0.37094016    0.48052001    -0.25360000
opls_142-30    C    0.61111111    0.57384984    0.34182988    0.09910000
opls_523-31    C    0.61111111    0.54234997    0.40463011    0.17700000
opls_522-32    C    0.61111111    0.48729002    0.37385984    -0.28210000
opls_521-33    C    0.61111111    0.45179996    0.39424002    0.08830000
opls_700-34    C    0.61111111    0.47881014    0.45046002    -0.00040000
opls_523-35    C    0.61111111    0.53563982    0.48095993    -0.21940000
opls_145-36    C    0.61111111    0.56720987    0.45882996    -0.22630000
opls_142-37    C    0.61111111    0.22214008    0.60659002    0.09910000
opls_916-38    C    0.61111111    0.13678985    0.60080980    0.17870000
opls_145-39    C    0.61111111    0.10822004    0.54640995    -0.22620000
opls_145-40    C    0.61111111    0.05468005    0.52298986    -0.22000000
opls_700-41    C    0.61111111    0.02685006    0.55180994    0.02890000
opls_700-42    C    0.61111111    0.05357002    0.60903982    0.00110000
opls_523-43    C    0.61111111    0.10957994    0.62905992    -0.25350000
opls_142-44    C    0.61111111    0.76796982    0.42614981    0.09910000
opls_523-45    C    0.61111111    0.86227991    0.45765012    0.17700000
opls_522-46    C    0.61111111    0.88656999    0.51271004    -0.28210000
opls_521-47    C    0.61111111    0.94242994    0.54820006    0.08830000
opls_700-48    C    0.61111111    0.97164990    0.52118986    -0.00040000
opls_523-49    C    0.61111111    0.94531992    0.46435998    -0.21940000
opls_145-50    C    0.61111111    0.89161995    0.43279011    -0.22630000
opls_521-51    C    0.61111111    0.61428016    0.97523999    0.05290000
opls_521-52    C    0.61111111    0.36094990    0.38571988    0.05290000
opls_521-53    C    0.61111111    0.02477009    0.63905001    0.05290000
opls_700-54    C    0.61111111    0.30058002    0.35228005    0.01270000
opls_523-55    C    0.61111111    0.26621002    0.29466005    -0.14460000
opls_145-56    C    0.61111111    0.21038005    0.26354986    -0.15940000
opls_145-57    C    0.61111111    0.17986999    0.28763003    -0.15890000
opls_145-58    C    0.61111111    0.20696007    0.34235992    -0.15980000
opls_523-59    C    0.61111111    0.26279007    0.37077012    -0.22080000
opls_700-60    C    0.61111111    0.05170004    0.69941980    0.01270000
opls_523-61    C    0.61111111    0.02845011    0.73379006    -0.14730000
opls_145-62    C    0.61111111    0.05317993    0.78961995    -0.15940000
opls_145-63    C    0.61111111    0.10774989    0.82012975    -0.15900000
opls_145-64    C    0.61111111    0.13539984    0.79303970    -0.15980000
opls_523-65    C    0.61111111    0.10797987    0.73720982    -0.22080000
opls_700-66    C    0.61111111    0.64771974    0.94829975    0.01270000
opls_523-67    C    0.61111111    0.70533988    0.97154988    -0.14730000
opls_145-68    C    0.61111111    0.73644974    0.94682979    -0.15940000
opls_145-69    C    0.61111111    0.71236980    0.89224971    -0.15890000
opls_145-70    C    0.61111111    0.65763990    0.86459998    -0.15980000
opls_523-71    C    0.61111111    0.62923006    0.89202006    -0.22080000
opls_135-72    C    0.61111111    0.73714998    0.12617989    -0.46320000
opls_908-73    C    0.61111111    0.69374005    0.06654013    -0.10260000
opls_135-74    C    0.61111111    0.38903978    0.26284987    -0.46330000
opls_908-75    C    0.61111111    0.37280003    0.30626002    -0.10260000
opls_135-76    C    0.61111111    0.87381997    0.61096985    -0.46320000
opls_908-77    C    0.61111111    0.93345992    0.62719985    -0.10250000
opls_280-78    C    0.61111111    0.61595000    0.28863991    0.24920000
opls_700-79    C    0.61111111    0.66090978    0.28177985    -0.14480000
opls_280-80    C    0.61111111    0.38880004    0.69560993    0.24490000
opls_700-81    C    0.61111111    0.36007998    0.72263002    -0.11570000
opls_280-82    C    0.61111111    0.67268013    0.38404993    0.24920000
opls_700-83    C    0.61111111    0.62086984    0.33909985    -0.14480000
opls_280-84    C    0.61111111    0.30681991    0.61119989    0.24490000
opls_700-85    C    0.61111111    0.36254984    0.63991997    -0.11570000
opls_280-86    C    0.61111111    0.71137002    0.32732004    0.24920000
opls_700-87    C    0.61111111    0.71821999    0.37912978    -0.14480000
opls_280-88    C    0.61111111    0.30438978    0.69318978    0.24490000
opls_700-89    C    0.61111111    0.27737018    0.63745001    -0.11570000
opls_144-90    H    0.61111111    0.36013016    0.79348002    0.10220000
opls_144-91    H    0.61111111    0.43333976    0.63986977    0.10200000
opls_144-92    H    0.61111111    0.20652988    0.56666009    0.10200000
opls_146-93    H    0.61111111    0.39817002    0.87546991    0.20860000
opls_146-94    H    0.61111111    0.47729993    0.60182996    0.20850000
opls_146-95    H    0.61111111    0.12452985    0.52269974    0.20860000
opls_910-96    H    0.61111111    0.45790991    0.79248990    0.24980000
opls_910-97    H    0.61111111    0.33457985    0.54208980    0.24970000
opls_910-98    H    0.61111111    0.20751004    0.66541990    0.24990000
opls_526-99    H    0.61111111    0.52965013    0.86396994    0.20890000
opls_526-100    H    0.61111111    0.33431997    0.47035008    0.20890000
opls_526-101    H    0.61111111    0.13603005    0.66568986    0.20890000
opls_146-102    H    0.61111111    0.44432987    0.96077995    0.20770000
opls_146-103    H    0.61111111    0.51644986    0.55567989    0.20780000
opls_146-104    H    0.61111111    0.03922008    0.48355005    0.20770000
opls_146-105    H    0.61111111    0.13948008    0.26614986    0.20840000
opls_146-106    H    0.61111111    0.18594998    0.36184999    0.20840000
opls_526-107    H    0.61111111    0.27080982    0.40714986    0.20880000
opls_526-108    H    0.61111111    0.27734009    0.26773009    0.20870000
opls_146-109    H    0.61111111    0.19154987    0.22299978    0.20850000
opls_146-110    H    0.61111111    0.12666982    0.86051975    0.20840000
opls_146-111    H    0.61111111    0.17589982    0.81404992    0.20840000
opls_526-112    H    0.61111111    0.13634983    0.72919996    0.20880000
opls_526-113    H    0.61111111    0.99039980    0.72266994    0.20870000
opls_146-114    H    0.61111111    0.03144993    0.80844994    0.20840000
opls_146-115    H    0.61111111    0.73384991    0.87332999    0.20840000
opls_146-116    H    0.61111111    0.63815001    0.82409970    0.20840000
opls_526-117    H    0.61111111    0.59284974    0.86364978    0.20880000
opls_526-118    H    0.61111111    0.73227004    0.00959997    0.20870000
opls_146-119    H    0.61111111    0.77700001    0.96854989    0.20850000
opls_144-120    H    0.61111111    0.69150985    0.22868000    0.10130000
opls_525-121    H    0.61111111    0.66376010    0.13983005    0.20850000
opls_910-122    H    0.61111111    0.58226981    0.19563977    0.24990000
opls_146-123    H    0.61111111    0.51754004    0.12526013    0.20840000
opls_526-124    H    0.61111111    0.47941018    0.03802005    0.20770000
opls_140-125    H    0.83878889    0.73501992    0.14786007    0.13770000
opls_140-126    H    0.84431111    0.70581998    0.05448997    0.17110000
opls_140-127    H    0.38343056    0.73501992    0.14786007    0.13770000
opls_140-128    H    0.37791111    0.70581998    0.05448997    0.17110000
opls_140-129    H    0.61111111    0.77662986    0.13060003    0.10770000
opls_144-130    H    0.61111111    0.53717992    0.30849006    0.10140000
opls_525-131    H    0.61111111    0.47606985    0.33623978    0.20850000
opls_910-132    H    0.61111111    0.61337007    0.41773007    0.25000000
opls_146-133    H    0.61111111    0.60772000    0.48245993    0.20840000
opls_526-134    H    0.61111111    0.55860978    0.52058986    0.20770000
opls_140-135    H    0.83878889    0.41283978    0.26497990    0.13770000
opls_140-136    H    0.84431111    0.34866005    0.29417982    0.17110000
opls_140-137    H    0.38343056    0.41283978    0.26497990    0.13770000
opls_140-138    H    0.37791111    0.34866005    0.29417982    0.17110000
opls_140-139    H    0.61111111    0.35398001    0.22338001    0.10780000
opls_144-140    H    0.61111111    0.77131981    0.46282994    0.10130000
opls_525-141    H    0.61111111    0.86016986    0.52392978    0.20850000
opls_910-142    H    0.61111111    0.80436985    0.38662976    0.24990000
opls_146-143    H    0.61111111    0.87474988    0.39227994    0.20840000
opls_526-144    H    0.61111111    0.96198004    0.44139008    0.20770000
opls_140-145    H    0.83878889    0.85214010    0.58716992    0.13770000
opls_140-146    H    0.84431111    0.94552012    0.65134010    0.17110000
opls_140-147    H    0.38343056    0.85214010    0.58716992    0.13770000
opls_140-148    H    0.37791111    0.94552012    0.65134010    0.17110000
opls_140-149    H    0.61111111    0.86940006    0.64601995    0.10760000
opls_400-150    F    0.50110000    0.85305992    0.23497998    -0.16150000
opls_400-151    F    0.46415000    0.36303983    0.13381979    -0.14640000
opls_400-152    F    0.40610000    0.80220985    0.68923999    -0.15410000
opls_281-153    O    0.61111111    0.56933000    0.25034002    -0.50480000
opls_281-154    O    0.61111111    0.43850006    0.72056006    -0.42130000
opls_281-155    O    0.61111111    0.68101000    0.43066995    -0.50480000
opls_281-156    O    0.61111111    0.28206000    0.56150003    -0.42130000
opls_281-157    O    0.61111111    0.74966000    0.31899003    -0.50480000
opls_281-158    O    0.61111111    0.27945001    0.71794979    -0.42140000
