#======================================================================
# Crystal Data Generated By AuToFF
#----------------------------------------------------------------------

data_AuToFF_phase_1

_cell_length_a                         17.7401
_cell_length_b                         4.2000
_cell_length_c                         19.0282
_cell_angle_alpha                      90.00
_cell_angle_beta                       114.77
_cell_angle_gamma                      90.00
_symmetry_space_group_name_H-M_alt     'P 1'
_symmetry_space_group_IT_number        1

loop_
_space_group_symop_operation_xyz
   'x, y, z'

loop_
   _atom_site_label
   _atom_site_type_symbol
   _atom_site_fract_x
   _atom_site_fract_y
   _atom_site_fract_z
   _atom_site_charge
opls_700-0    C    0.53070019    0.50000000    0.60659966    -0.12940000
opls_700-1    C    0.54758007    0.50000000    0.48290008    -0.19000000
opls_700-2    C    0.40740026    0.50000000    0.47956002    -0.13490000
opls_280-3    C    0.44425999    0.50000000    0.56203008    0.27830000
opls_280-4    C    0.58091991    0.50000000    0.56545000    0.27830000
opls_280-5    C    0.46046982    0.50000000    0.44116992    0.27540000
opls_700-6    C    0.79350038    0.50000000    0.07178025    0.06450000
opls_700-7    C    0.78150995    0.50000000    0.19971004    0.07890000
opls_700-8    C    0.92177007    0.50000000    0.19724971    0.06320000
opls_145-9    C    0.88028020    0.50000000    0.11515990    -0.13330000
opls_145-10    C    0.74797033    0.50000000    0.11769026    -0.13290000
opls_145-11    C    0.86854983    0.50000000    0.23538978    -0.13260000
opls_700-12    C    0.75441030    0.50000000    0.98806990    0.06960000
opls_700-13    C    0.73198020    0.50000000    0.24332987    0.06960000
opls_700-14    C    0.01026013    0.50000000    0.23911009    0.06560000
opls_145-15    C    0.66736997    0.50000000    0.94493971    -0.13290000
opls_145-16    C    0.76666998    0.50000000    0.32594983    -0.13340000
opls_145-17    C    0.06563017    0.50000000    0.20273988    -0.13290000
opls_142-18    C    0.32007025    0.50000000    0.44055990    0.11020000
opls_142-19    C    0.60273985    0.50000000    0.44655996    0.11040000
opls_142-20    C    0.56207979    0.50000000    0.68896959    0.11000000
opls_145-21    C    0.05039015    0.50000000    0.32160966    -0.13290000
opls_145-22    C    0.64426008    0.50000000    0.20826014    -0.13340000
opls_145-23    C    0.79880030    0.50000000    0.94084957    -0.13290000
opls_700-24    C    0.76028023    0.50000000    0.85923956    0.00030000
opls_700-25    C    0.59641019    0.50000000    0.25115999    0.00550000
opls_700-26    C    0.13595004    0.50000000    0.36347989    0.01180000
opls_700-27    C    0.15195997    0.50000000    0.24461994    0.00510000
opls_700-28    C    0.71946022    0.50000000    0.36911012    0.00890000
opls_700-29    C    0.62852020    0.50000000    0.86364975    0.00450000
opls_916-30    C    0.67433023    0.50000000    0.81891985    0.12550000
opls_916-31    C    0.63300001    0.50000000    0.33248988    0.12550000
opls_916-32    C    0.18914993    0.50000000    0.32605979    0.12540000
opls_515-33    C    0.76512986    0.50000000    0.45804962    0.06140000
opls_135-34    C    0.85952031    0.50000000    0.48211990    -0.42120000
opls_135-35    C    0.74094991    0.19995952    0.49036963    -0.42120000
opls_515-36    C    0.50108016    0.50000000    0.20779019    0.06140000
opls_135-37    C    0.47619981    0.50000000    0.11993009    -0.42120000
opls_135-38    C    0.46599021    0.80004048    0.22987010    -0.42120000
opls_515-39    C    0.20738979    0.50000000    0.20032990    0.06140000
opls_135-40    C    0.15238998    0.50000000    0.11266021    -0.42120000
opls_135-41    C    0.26233018    0.19995952    0.22185998    -0.42120000
opls_515-42    C    0.16998970    0.50000000    0.45239971    0.06140000
opls_135-43    C    0.09707973    0.50000000    0.47626974    -0.42110000
opls_135-44    C    0.22318013    0.80004048    0.48481984    -0.42120000
opls_515-45    C    0.53295031    0.50000000    0.82426996    0.06110000
opls_135-46    C    0.49885002    0.50000000    0.88654978    -0.42100000
opls_135-47    C    0.50231016    0.19995952    0.77369973    -0.42120000
opls_515-48    C    0.81366999    0.50000000    0.81295972    0.06140000
opls_135-49    C    0.90622002    0.50000000    0.86937953    -0.42120000
opls_135-50    C    0.79425002    0.80004048    0.76186976    -0.42120000
opls_281-51    O    0.39862026    0.50000000    0.59734983    -0.40640000
opls_281-52    O    0.65749019    0.50000000    0.60337015    -0.40930000
opls_281-53    O    0.42912990    0.50000000    0.36859965    -0.36680000
opls_146-54    H    0.91539034    0.50000000    0.08559018    0.23470000
opls_146-55    H    0.68666027    0.50000000    0.09016995    0.23470000
opls_146-56    H    0.89469982    0.50000000    0.29301980    0.23480000
opls_146-57    H    0.62798006    0.50000000    0.97062996    0.23350000
opls_146-58    H    0.82807998    0.50000000    0.35887002    0.23380000
opls_146-59    H    0.04524993    0.50000000    0.14427008    0.23460000
opls_144-60    H    0.66366998    0.50000000    0.48187972    0.11010000
opls_144-61    H    0.52023988    0.50000000    0.71202993    0.11020000
opls_146-62    H    0.01960987    0.50000000    0.35568970    0.23420000
opls_146-63    H    0.61143009    0.50000000    0.14996976    0.23490000
opls_146-64    H    0.86108984    0.50000000    0.96392959    0.23380000
opls_144-65    H    0.28929973    0.50000000    0.47479967    0.11000000
opls_910-66    H    0.30207992    0.50000000    0.33025989    0.28100000
opls_910-67    H    0.52416024    0.50000000    0.33625996    0.28100000
opls_910-68    H    0.68168001    0.50000000    0.71781007    0.28100000
opls_702-69    H    0.74705017    0.72123095    0.48215984    0.03950000
opls_140-70    H    0.87743982    0.27833095    0.45804962    0.08040000
opls_140-71    H    0.89340997    0.49985000    0.54794987    0.08040000
opls_140-72    H    0.87753018    0.72161905    0.45809013    0.08040000
opls_140-73    H    0.75913001    0.97879048    0.46633986    0.08050000
opls_140-74    H    0.67105000    0.19921905    0.47251992    0.07980000
opls_140-75    H    0.77479022    0.19988095    0.55620017    0.08040000
opls_702-76    H    0.47490001    0.27876905    0.22430006    0.03950000
opls_140-77    H    0.50232998    0.72166905    0.10357996    0.08040000
opls_140-78    H    0.40563987    0.50015000    0.08775997    0.08040000
opls_140-79    H    0.50228009    0.27839048    0.10349025    0.08040000
opls_140-80    H    0.49208028    0.02121905    0.21326010    0.08040000
opls_140-81    H    0.48444992    0.80078095    0.29491988    0.08040000
opls_140-82    H    0.39543026    0.80011905    0.19773008    0.08040000
opls_702-83    H    0.24841015    0.72123095    0.21643000    0.03950000
opls_140-84    H    0.11155028    0.27833095    0.09671001    0.08040000
opls_140-85    H    0.19335031    0.49985000    0.07980021    0.08040000
opls_140-86    H    0.11152003    0.72161905    0.09663014    0.08040000
opls_140-87    H    0.22130993    0.97879048    0.20565975    0.08040000
opls_140-88    H    0.30302012    0.19921905    0.28678012    0.08040000
opls_140-89    H    0.30332987    0.19988095    0.18903991    0.08040000
opls_702-90    H    0.20971003    0.27876905    0.47657996    0.03950000
opls_140-91    H    0.05756024    0.72166905    0.45213000    0.08040000
opls_140-92    H    0.12218994    0.50015000    0.54208986    0.08040000
opls_140-93    H    0.05750989    0.27839048    0.45217978    0.08040000
opls_140-94    H    0.18342999    0.02121905    0.46072004    0.08040000
opls_140-95    H    0.27713999    0.80078095    0.46712003    0.08040000
opls_140-96    H    0.24833993    0.80011905    0.55063997    0.08040000
opls_702-97    H    0.51009975    0.72123095    0.78650955    0.03960000
opls_140-98    H    0.52167034    0.27833095    0.92414003    0.08040000
opls_140-99    H    0.42810006    0.49985000    0.85747953    0.08040000
opls_140-100    H    0.52160993    0.72161905    0.92417996    0.08040000
opls_140-101    H    0.52507035    0.97879048    0.81147982    0.08040000
opls_140-102    H    0.52758986    0.19921905    0.72759989    0.07980000
opls_140-103    H    0.43156997    0.19988095    0.74457971    0.08040000
opls_702-104    H    0.79915000    0.27876905    0.77480980    0.03950000
opls_140-105    H    0.92060021    0.72166905    0.90735003    0.08050000
opls_140-106    H    0.94582033    0.50015000    0.83519011    0.08040000
opls_140-107    H    0.92069030    0.27839048    0.90738997    0.08040000
opls_140-108    H    0.80889025    0.02121905    0.80003010    0.08040000
opls_140-109    H    0.72571989    0.80078095    0.72011992    0.08040000
opls_140-110    H    0.83381014    0.80011905    0.72763982    0.08040000
opls_238-111    N    0.27291013    0.50000000    0.36290980    -0.29240000
opls_238-112    N    0.58216026    0.50000000    0.36926002    -0.29340000
opls_238-113    N    0.64233988    0.50000000    0.74011975    -0.29350000
