#======================================================================
# Crystal Data Generated By AuToFF
#----------------------------------------------------------------------

data_AuToFF_phase_1

_cell_length_a                         31.6777
_cell_length_b                         31.6777
_cell_length_c                         4.5365
_cell_angle_alpha                      90.00
_cell_angle_beta                       90.00
_cell_angle_gamma                      120.00
_symmetry_space_group_name_H-M_alt     'P 1'
_symmetry_space_group_IT_number        1

loop_
_space_group_symop_operation_xyz
   'x, y, z'

loop_
   _atom_site_label
   _atom_site_type_symbol
   _atom_site_fract_x
   _atom_site_fract_y
   _atom_site_fract_z
   _atom_site_charge
opls_916-0    C    0.28222011    0.64304000    0.04333076    0.17680000
opls_145-1    C    0.40590002    0.74242000    0.19420037    -0.15800000
opls_145-2    C    0.43218014    0.79175022    0.19401080    -0.15930000
opls_145-3    C    0.41542019    0.81940016    0.04415959    0.23600000
opls_145-4    C    0.37059012    0.79494993    0.89317976    -0.16320000
opls_145-5    C    0.34396009    0.74562008    0.89265072    -0.16550000
opls_142-6    C    0.46671982    0.56653990    0.93028105    0.10460000
opls_700-7    C    0.48333002    0.53279016    0.96726992    0.00300000
opls_145-8    C    0.51153993    0.96748997    0.11578971    -0.18790000
opls_166-9    C    0.54409992    0.01535995    0.14779896    0.23390000
opls_181-10    C    0.41037984    0.38038995    0.04954039    -0.20630000
opls_916-11    C    0.35696021    0.63918015    0.04333076    0.17680000
opls_145-12    C    0.25758004    0.66348020    0.19420037    -0.15800000
opls_145-13    C    0.20825015    0.64043007    0.19401080    -0.15930000
opls_145-14    C    0.18060000    0.59602008    0.04415959    0.23600000
opls_145-15    C    0.20505011    0.57564003    0.89317976    -0.16320000
opls_145-16    C    0.25438024    0.59834022    0.89265072    -0.16550000
opls_142-17    C    0.43346002    0.90018003    0.93028105    0.10460000
opls_700-18    C    0.46721008    0.95054001    0.96726992    0.00300000
opls_145-19    C    0.03251015    0.54405003    0.11578971    -0.18790000
opls_166-20    C    0.98464011    0.52874003    0.14779896    0.23390000
opls_181-21    C    0.61960998    0.02999013    0.04954039    -0.20630000
opls_916-22    C    0.36082017    0.71778022    0.04333076    0.17680000
opls_145-23    C    0.33652012    0.59410017    0.19420037    -0.15800000
opls_145-24    C    0.35956989    0.56782008    0.19401080    -0.15930000
opls_145-25    C    0.40397999    0.58458013    0.04415959    0.23600000
opls_145-26    C    0.42436008    0.62941004    0.89317976    -0.16320000
opls_145-27    C    0.40166017    0.65604007    0.89265072    -0.16550000
opls_142-28    C    0.09982016    0.53328007    0.93028105    0.10460000
opls_700-29    C    0.04946009    0.51667020    0.96726992    0.00300000
opls_145-30    C    0.45594991    0.48845999    0.11578971    -0.18790000
opls_166-31    C    0.47125998    0.45590003    0.14779896    0.23390000
opls_181-32    C    0.97000986    0.58961992    0.04954039    -0.20630000
opls_916-33    C    0.71777989    0.35696000    0.95666924    0.17680000
opls_145-34    C    0.59409998    0.25758000    0.80579963    -0.15800000
opls_145-35    C    0.56782004    0.20825015    0.80598920    -0.15930000
opls_145-36    C    0.58457981    0.18059984    0.95584041    0.23600000
opls_145-37    C    0.62940988    0.20505007    0.10682024    -0.16320000
opls_145-38    C    0.65603991    0.25437992    0.10734928    -0.16550000
opls_142-39    C    0.53328018    0.43346010    0.06971895    0.10460000
opls_700-40    C    0.51667016    0.46721021    0.03273008    0.00300000
opls_145-41    C    0.48846007    0.03251003    0.88421029    -0.18790000
opls_166-42    C    0.45590008    0.98464005    0.85220104    0.23400000
opls_181-43    C    0.58962016    0.61961005    0.95045961    -0.20630000
opls_916-44    C    0.64303997    0.36082022    0.95666924    0.17680000
opls_145-45    C    0.74242014    0.33652017    0.80579963    -0.15790000
opls_145-46    C    0.79174985    0.35956993    0.80598920    -0.15930000
opls_145-47    C    0.81940000    0.40397992    0.95584041    0.23610000
opls_145-48    C    0.79494989    0.42435997    0.10682024    -0.16320000
opls_145-49    C    0.74561994    0.40166015    0.10734928    -0.16550000
opls_142-50    C    0.56653998    0.09981997    0.06971895    0.10460000
opls_700-51    C    0.53278992    0.04945999    0.03273008    0.00300000
opls_145-52    C    0.96748985    0.45594997    0.88421029    -0.18790000
opls_166-53    C    0.01535989    0.47125997    0.85220104    0.23390000
opls_181-54    C    0.38039020    0.97001023    0.95045961    -0.20630000
opls_916-55    C    0.63918001    0.28222015    0.95666924    0.17680000
opls_145-56    C    0.66348006    0.40590019    0.80579963    -0.15790000
opls_145-57    C    0.64043011    0.43217992    0.80598920    -0.15930000
opls_145-58    C    0.59602001    0.41541987    0.95584041    0.23620000
opls_145-59    C    0.57563992    0.37058996    0.10682024    -0.16320000
opls_145-60    C    0.59833983    0.34395993    0.10734928    -0.16550000
opls_142-61    C    0.90017984    0.46671993    0.06971895    0.10460000
opls_700-62    C    0.95054010    0.48333017    0.03273008    0.00300000
opls_145-63    C    0.54405009    0.51154001    0.88421029    -0.18790000
opls_166-64    C    0.52874002    0.54409997    0.85220104    0.23390000
opls_181-65    C    0.02999014    0.41038008    0.95045961    -0.20620000
opls_750-66    N    0.44346004    0.86921993    0.05140968    -0.19640000
opls_750-67    N    0.13078001    0.57423992    0.05140968    -0.19640000
opls_750-68    N    0.42575995    0.55654015    0.05140968    -0.19640000
opls_750-69    N    0.55653996    0.13078007    0.94859032    -0.19630000
opls_750-70    N    0.86921999    0.42576008    0.94859032    -0.19640000
opls_750-71    N    0.57424023    0.44346021    0.94859032    -0.19640000
opls_239-72    N    0.33332998    0.66667007    0.04318087    -0.02710000
opls_239-73    N    0.66667002    0.33332993    0.95681913    -0.02710000
opls_146-74    H    0.42085018    0.72272013    0.31903009    0.05320000
opls_146-75    H    0.46700006    0.80921014    0.31798964    0.10850000
opls_146-76    H    0.35541010    0.81442999    0.76874022    0.11590000
opls_146-77    H    0.30921006    0.72844010    0.76760939    0.05360000
opls_144-78    H    0.49024008    0.59987993    0.79860906    0.04780000
opls_146-79    H    0.52199003    0.94244996    0.21384988    0.12550000
opls_185-80    H    0.43056001    0.37077003    0.87716081    0.05920000
opls_185-81    H    0.39303018    0.39627006    0.90480988    0.06330000
opls_185-82    H    0.38281017    0.34798017    0.17142070    0.09250000
opls_146-83    H    0.27728008    0.69812993    0.31903009    0.05320000
opls_146-84    H    0.19079002    0.65779011    0.31798964    0.10850000
opls_146-85    H    0.18557005    0.54098009    0.76874022    0.10410000
opls_146-86    H    0.27156019    0.58077021    0.76760939    0.05360000
opls_144-87    H    0.40011991    0.89035999    0.79860906    0.04780000
opls_146-88    H    0.05754984    0.57953997    0.21384988    0.12550000
opls_185-89    H    0.62922986    0.05978999    0.87716081    0.05920000
opls_185-90    H    0.60373005    0.99675982    0.90480988    0.06320000
opls_185-91    H    0.65202018    0.03483017    0.17142070    0.09250000
opls_146-92    H    0.30187006    0.57914994    0.31903009    0.05320000
opls_146-93    H    0.34221010    0.53300012    0.31798964    0.10850000
opls_146-94    H    0.45901985    0.64458992    0.76874022    0.10410000
opls_146-95    H    0.41922993    0.69079005    0.76760939    0.05360000
opls_144-96    H    0.10964001    0.50976008    0.79860906    0.04780000
opls_146-97    H    0.42046013    0.47801007    0.21384988    0.12550000
opls_185-98    H    0.94021013    0.56943998    0.87716081    0.05930000
opls_185-99    H    0.00324009    0.60697012    0.90480988    0.06320000
opls_185-100    H    0.96517015    0.61719003    0.17142070    0.09250000
opls_146-101    H    0.57914982    0.27727987    0.68096991    0.05320000
opls_146-102    H    0.53299994    0.19078986    0.68201036    0.10850000
opls_146-103    H    0.64458990    0.18557001    0.23125978    0.11590000
opls_146-104    H    0.69078994    0.27155990    0.23239061    0.05360000
opls_144-105    H    0.50975992    0.40012007    0.20139094    0.04780000
opls_146-106    H    0.47800997    0.05755004    0.78615012    0.12550000
opls_185-107    H    0.56943999    0.62922997    0.12283919    0.05920000
opls_185-108    H    0.60696982    0.60372994    0.09519012    0.06320000
opls_185-109    H    0.61719001    0.65202020    0.82857930    0.09250000
opls_146-110    H    0.72271992    0.30187007    0.68096991    0.05320000
opls_146-111    H    0.80920998    0.34220989    0.68201036    0.10850000
opls_146-112    H    0.81442995    0.45901991    0.23125978    0.10410000
opls_146-113    H    0.72843999    0.41923015    0.23239061    0.05360000
opls_144-114    H    0.59988009    0.10964001    0.20139094    0.04780000
opls_146-115    H    0.94245016    0.42046003    0.78615012    0.12550000
opls_185-116    H    0.37077014    0.94021001    0.12283919    0.05920000
opls_185-117    H    0.39626995    0.00324018    0.09519012    0.06320000
opls_185-118    H    0.34798000    0.96517020    0.82857930    0.09250000
opls_146-119    H    0.69812994    0.42085006    0.68096991    0.05320000
opls_146-120    H    0.65778990    0.46699988    0.68201036    0.10860000
opls_146-121    H    0.54098015    0.35541008    0.23125978    0.10410000
opls_146-122    H    0.58077007    0.30920995    0.23239061    0.05360000
opls_144-123    H    0.89035999    0.49023992    0.20139094    0.04780000
opls_146-124    H    0.57953987    0.52198993    0.78615012    0.12550000
opls_185-125    H    0.05978987    0.43056002    0.12283919    0.05920000
opls_185-126    H    0.99675991    0.39302988    0.09519012    0.06320000
opls_185-127    H    0.03482985    0.38280997    0.82857930    0.09250000
opls_179-128    O    0.58752009    0.02868991    0.29629009    -0.22040000
opls_179-129    O    0.97130995    0.55883004    0.29629009    -0.22040000
opls_179-130    O    0.44116996    0.41248006    0.29629009    -0.22040000
opls_179-131    O    0.41247991    0.97131009    0.70370991    -0.22030000
opls_179-132    O    0.02869005    0.44116996    0.70370991    -0.22040000
opls_179-133    O    0.55883004    0.58751994    0.70370991    -0.22040000
