#======================================================================
# Crystal Data Generated By AuToFF
#----------------------------------------------------------------------

data_AuToFF_phase_1

_cell_length_a                         38.8021
_cell_length_b                         38.8021
_cell_length_c                         7.2400
_cell_angle_alpha                      90.00
_cell_angle_beta                       90.00
_cell_angle_gamma                      120.00
_symmetry_space_group_name_H-M_alt     'P 1'
_symmetry_space_group_IT_number        1

loop_
_space_group_symop_operation_xyz
   'x, y, z'

loop_
   _atom_site_label
   _atom_site_type_symbol
   _atom_site_fract_x
   _atom_site_fract_y
   _atom_site_fract_z
   _atom_site_charge
opls_166-0    C    0.16841011    0.85703020    0.18450967    0.27820000
opls_700-1    C    0.13690005    0.84483002    0.02845028    -0.04050000
opls_142-2    C    0.10900999    0.86197997    0.02438950    0.04070000
opls_145-3    C    0.09518004    0.91693003    0.11190055    0.20820000
opls_145-4    C    0.05220007    0.89428008    0.10788950    -0.11590000
opls_145-5    C    0.02925011    0.91416009    0.11416989    -0.09170000
opls_700-6    C    0.04836001    0.95763013    0.12359945    0.07230000
opls_145-7    C    0.09194014    0.97965010    0.13137017    -0.09170000
opls_145-8    C    0.11466013    0.95953023    0.12762983    -0.11540000
opls_181-9    C    0.20468022    0.89896023    0.50188950    -0.14400000
opls_700-10    C    0.02340012    0.97948017    0.12534945    0.06210000
opls_145-11    C    0.98006992    0.95733999    0.12524033    -0.06580000
opls_145-12    C    0.13107002    0.81533020    0.87154972    -0.18130000
opls_166-13    C    0.15670997    0.79789011    0.86216989    0.27820000
opls_700-14    C    0.18846994    0.81027003    0.01770028    -0.04100000
opls_142-15    C    0.21656007    0.79320013    0.02436050    0.04970000
opls_145-16    C    0.24062998    0.74915009    0.86682044    0.20710000
opls_145-17    C    0.27559002    0.76172999    0.99875000    -0.11390000
opls_145-18    C    0.29856996    0.74193003    0.98388950    -0.08590000
opls_700-19    C    0.28727008    0.70934007    0.83733978    0.07650000
opls_145-20    C    0.25283998    0.69729999    0.70340055    -0.08580000
opls_145-21    C    0.22995006    0.71723000    0.71758011    -0.11380000
opls_181-22    C    0.11971989    0.75560000    0.54696961    -0.14400000
opls_700-23    C    0.31090006    0.68750997    0.82774033    0.06740000
opls_145-24    C    0.35402994    0.70962010    0.82716022    -0.06340000
opls_145-25    C    0.19391999    0.83947018    0.17616022    -0.18130000
opls_166-26    C    0.14297009    0.31138003    0.18450967    0.27820000
opls_700-27    C    0.15517002    0.29206990    0.02845028    -0.04050000
opls_142-28    C    0.13801993    0.24703008    0.02438950    0.04070000
opls_145-29    C    0.08306989    0.17824995    0.11190055    0.20820000
opls_145-30    C    0.10571988    0.15791998    0.10788950    -0.11600000
opls_145-31    C    0.08584014    0.11509005    0.11416989    -0.09170000
opls_700-32    C    0.04237014    0.09073016    0.12359945    0.07230000
opls_145-33    C    0.02035006    0.11229005    0.13137017    -0.09170000
opls_145-34    C    0.04047015    0.15513011    0.12762983    -0.11540000
opls_181-35    C    0.10104009    0.30571992    0.50188950    -0.14390000
opls_700-36    C    0.02051987    0.04392000    0.12534945    0.06210000
opls_145-37    C    0.04265996    0.02273001    0.12524033    -0.06580000
opls_145-38    C    0.18467009    0.31573998    0.87154972    -0.18130000
opls_166-39    C    0.20211015    0.35882019    0.86216989    0.27820000
opls_700-40    C    0.18973010    0.37819995    0.01770028    -0.04100000
opls_142-41    C    0.20680011    0.42336000    0.02436050    0.04970000
opls_145-42    C    0.25085007    0.49148008    0.86682044    0.20700000
opls_145-43    C    0.23826999    0.51386012    0.99875000    -0.11390000
opls_145-44    C    0.25807010    0.55664006    0.98388950    -0.08590000
opls_700-45    C    0.29066003    0.57793004    0.83733978    0.07650000
opls_145-46    C    0.30270018    0.55554018    0.70340055    -0.08580000
opls_145-47    C    0.28276994    0.51272007    0.71758011    -0.11390000
opls_181-48    C    0.24439988    0.36411992    0.54696961    -0.14400000
opls_700-49    C    0.31249009    0.62339005    0.82774033    0.06740000
opls_145-50    C    0.29037998    0.64441012    0.82716022    -0.06340000
opls_145-51    C    0.16053009    0.35445012    0.17616022    -0.18130000
opls_166-52    C    0.68861996    0.83159007    0.18450967    0.27820000
opls_700-53    C    0.70792993    0.86310008    0.02845028    -0.04050000
opls_142-54    C    0.75297024    0.89099025    0.02438950    0.04070000
opls_145-55    C    0.82175007    0.90482002    0.11190055    0.20810000
opls_145-56    C    0.84208019    0.94780024    0.10788950    -0.11600000
opls_145-57    C    0.88491016    0.97075016    0.11416989    -0.09170000
opls_700-58    C    0.90927000    0.95164000    0.12359945    0.07230000
opls_145-59    C    0.88770995    0.90806015    0.13137017    -0.09170000
opls_145-60    C    0.84487001    0.88534026    0.12762983    -0.11540000
opls_181-61    C    0.69428010    0.79532014    0.50188950    -0.14400000
opls_700-62    C    0.95608016    0.97660013    0.12534945    0.06210000
opls_145-63    C    0.97727012    0.01993001    0.12524033    -0.06580000
opls_145-64    C    0.68426004    0.86893011    0.87154972    -0.18130000
opls_166-65    C    0.64118003    0.84329000    0.86216989    0.27830000
opls_700-66    C    0.62179996    0.81153001    0.01770028    -0.04100000
opls_142-67    C    0.57663997    0.78344017    0.02436050    0.04970000
opls_145-68    C    0.50852010    0.75937013    0.86682044    0.20700000
opls_145-69    C    0.48614014    0.72441018    0.99875000    -0.11390000
opls_145-70    C    0.44336009    0.70143020    0.98388950    -0.08590000
opls_700-71    C    0.42207004    0.71273018    0.83733978    0.07650000
opls_145-72    C    0.44445999    0.74716013    0.70340055    -0.08580000
opls_145-73    C    0.48728015    0.77005023    0.71758011    -0.11390000
opls_181-74    C    0.63587997    0.88028009    0.54696961    -0.14400000
opls_700-75    C    0.37661011    0.68909998    0.82774033    0.06740000
opls_145-76    C    0.35558997    0.64597007    0.82716022    -0.06340000
opls_145-77    C    0.64555007    0.80608000    0.17616022    -0.18130000
opls_166-78    C    0.83159004    0.14297010    0.68450967    0.27820000
opls_700-79    C    0.86309995    0.15516998    0.52845028    -0.04050000
opls_142-80    C    0.89099001    0.13802003    0.52438950    0.04070000
opls_145-81    C    0.90481996    0.08306997    0.61190055    0.20810000
opls_145-82    C    0.94779993    0.10571992    0.60788950    -0.11600000
opls_145-83    C    0.97074989    0.08583991    0.61416989    -0.09170000
opls_700-84    C    0.95163999    0.04236987    0.62359945    0.07230000
opls_145-85    C    0.90805986    0.02034990    0.63137017    -0.09170000
opls_145-86    C    0.88534002    0.04047007    0.62762983    -0.11540000
opls_181-87    C    0.79531993    0.10104007    0.00188950    -0.14400000
opls_700-88    C    0.97660003    0.02052012    0.62534945    0.06210000
opls_145-89    C    0.01993008    0.04266001    0.62524033    -0.06580000
opls_145-90    C    0.86893013    0.18467009    0.37154972    -0.18130000
opls_166-91    C    0.84329003    0.20210989    0.36216989    0.27820000
opls_700-92    C    0.81153006    0.18972997    0.51770028    -0.04100000
opls_142-93    C    0.78344008    0.20680016    0.52436050    0.04970000
opls_145-94    C    0.75937002    0.25084991    0.36682044    0.20710000
opls_145-95    C    0.72440998    0.23827001    0.49875000    -0.11390000
opls_145-96    C    0.70143004    0.25806997    0.48388950    -0.08590000
opls_700-97    C    0.71272992    0.29065993    0.33733978    0.07650000
opls_145-98    C    0.74716002    0.30270001    0.20340055    -0.08580000
opls_145-99    C    0.77004994    0.28277000    0.21758011    -0.11390000
opls_181-100    C    0.88028011    0.24440000    0.04696961    -0.14400000
opls_700-101    C    0.68909994    0.31249003    0.32774033    0.06740000
opls_145-102    C    0.64597006    0.29037990    0.32716022    -0.06340000
opls_145-103    C    0.80608016    0.16053012    0.67616022    -0.18120000
opls_166-104    C    0.85702991    0.68861997    0.68450967    0.27830000
opls_700-105    C    0.84482998    0.70793010    0.52845028    -0.04050000
opls_142-106    C    0.86198022    0.75297022    0.52438950    0.04070000
opls_145-107    C    0.91693011    0.82175005    0.61190055    0.20820000
opls_145-108    C    0.89428012    0.84208002    0.60788950    -0.11600000
opls_145-109    C    0.91416001    0.88491025    0.61416989    -0.09170000
opls_700-110    C    0.95763001    0.90927014    0.62359945    0.07230000
opls_145-111    C    0.97965009    0.88771025    0.63137017    -0.09170000
opls_145-112    C    0.95953000    0.84487019    0.62762983    -0.11540000
opls_181-113    C    0.89895991    0.69428008    0.00188950    -0.14390000
opls_700-114    C    0.97948013    0.95608000    0.62534945    0.06220000
opls_145-115    C    0.95734004    0.97726999    0.62524033    -0.06580000
opls_145-116    C    0.81532991    0.68426002    0.37154972    -0.18130000
opls_166-117    C    0.79789000    0.64118011    0.36216989    0.27820000
opls_700-118    C    0.81026990    0.62180005    0.51770028    -0.04100000
opls_142-119    C    0.79319989    0.57664000    0.52436050    0.04970000
opls_145-120    C    0.74914993    0.50851992    0.36682044    0.20700000
opls_145-121    C    0.76173016    0.48614018    0.49875000    -0.11390000
opls_145-122    C    0.74192990    0.44335994    0.48388950    -0.08590000
opls_700-123    C    0.70933997    0.42206996    0.33733978    0.07650000
opls_145-124    C    0.69729996    0.44446012    0.20340055    -0.08580000
opls_145-125    C    0.71723006    0.48727993    0.21758011    -0.11390000
opls_181-126    C    0.75560012    0.63588008    0.04696961    -0.14400000
opls_700-127    C    0.68750991    0.37660995    0.32774033    0.06740000
opls_145-128    C    0.70962017    0.35559017    0.32716022    -0.06340000
opls_145-129    C    0.83947006    0.64555018    0.67616022    -0.18120000
opls_166-130    C    0.31138004    0.16840993    0.68450967    0.27830000
opls_700-131    C    0.29207007    0.13689992    0.52845028    -0.04050000
opls_142-132    C    0.24702991    0.10901005    0.52438950    0.04070000
opls_145-133    C    0.17824993    0.09517998    0.61190055    0.20810000
opls_145-134    C    0.15791996    0.05220006    0.60788950    -0.11590000
opls_145-135    C    0.11508999    0.02925014    0.61416989    -0.09160000
opls_700-136    C    0.09073000    0.04836000    0.62359945    0.07230000
opls_145-137    C    0.11229020    0.09194015    0.63137017    -0.09170000
opls_145-138    C    0.15513014    0.11466004    0.62762983    -0.11540000
opls_181-139    C    0.30572005    0.20468015    0.00188950    -0.14400000
opls_700-140    C    0.04391984    0.02339987    0.62534945    0.06210000
opls_145-141    C    0.02272988    0.98006999    0.62524033    -0.06560000
opls_145-142    C    0.31573996    0.13106989    0.37154972    -0.18130000
opls_166-143    C    0.35881997    0.15671000    0.36216989    0.27820000
opls_700-144    C    0.37820004    0.18846999    0.51770028    -0.04100000
opls_142-145    C    0.42336018    0.21656013    0.52436050    0.04970000
opls_145-146    C    0.49148005    0.24063017    0.36682044    0.20700000
opls_145-147    C    0.51386001    0.27559012    0.49875000    -0.11390000
opls_145-148    C    0.55664006    0.29857009    0.48388950    -0.08580000
opls_700-149    C    0.57793011    0.28727011    0.33733978    0.07650000
opls_145-150    C    0.55554016    0.25284017    0.20340055    -0.08580000
opls_145-151    C    0.51272000    0.22995006    0.21758011    -0.11380000
opls_181-152    C    0.36412003    0.11971991    0.04696961    -0.14390000
opls_700-153    C    0.62338989    0.31090002    0.32774033    0.06750000
opls_145-154    C    0.64441003    0.35402993    0.32716022    -0.06340000
opls_145-155    C    0.35444993    0.19392000    0.67616022    -0.18130000
opls_750-156    N    0.11989003    0.89768001    0.10857044    -0.23150000
opls_750-157    N    0.21530999    0.76780018    0.87711050    -0.23830000
opls_750-158    N    0.10231997    0.22221012    0.10857044    -0.23140000
opls_750-159    N    0.23219995    0.44751009    0.87711050    -0.23840000
opls_750-160    N    0.77779015    0.88011017    0.10857044    -0.23160000
opls_750-161    N    0.55248996    0.78469003    0.87711050    -0.23840000
opls_750-162    N    0.88010997    0.10231999    0.60857044    -0.23150000
opls_750-163    N    0.78469016    0.23220012    0.37711050    -0.23840000
opls_750-164    N    0.89768018    0.77779018    0.60857044    -0.23160000
opls_750-165    N    0.76780020    0.55249021    0.37711050    -0.23840000
opls_750-166    N    0.22220999    0.11989013    0.60857044    -0.23140000
opls_750-167    N    0.44751004    0.21530997    0.37711050    -0.23840000
opls_179-168    O    0.17218005    0.88536020    0.34686050    -0.12750000
opls_179-169    O    0.15201999    0.76871020    0.70295028    -0.12750000
opls_179-170    O    0.11463999    0.28682016    0.34686050    -0.12750000
opls_179-171    O    0.23129003    0.38331012    0.70295028    -0.12750000
opls_179-172    O    0.71318000    0.82782023    0.34686050    -0.12750000
opls_179-173    O    0.61668987    0.84797998    0.70295028    -0.12750000
opls_179-174    O    0.82782010    0.11464010    0.84686050    -0.12750000
opls_179-175    O    0.84798016    0.23129010    0.20295028    -0.12750000
opls_179-176    O    0.88536016    0.71318014    0.84686050    -0.12750000
opls_179-177    O    0.76871012    0.61669018    0.20295028    -0.12750000
opls_179-178    O    0.28682015    0.17218006    0.84686050    -0.12740000
opls_179-179    O    0.38331013    0.15202002    0.20295028    -0.12740000
opls_144-180    H    0.08025001    0.84532996    0.93683011    0.02950000
opls_146-181    H    0.03605003    0.86107024    0.10373066    0.04500000
opls_146-182    H    0.99653015    0.89413009    0.11053039    0.05630000
opls_146-183    H    0.10989008    0.01255014    0.14187017    0.05570000
opls_146-184    H    0.14788015    0.97743010    0.13459945    0.12440000
opls_185-185    H    0.20153999    0.87279012    0.60023066    0.05700000
opls_185-186    H    0.20282991    0.92107006    0.61425967    0.05730000
opls_185-187    H    0.23498001    0.91494007    0.41896961    0.05780000
opls_146-188    H    0.96487006    0.92483008    0.12401934    0.05120000
opls_146-189    H    0.10655997    0.80665018    0.75491989    0.04170000
opls_144-190    H    0.23784995    0.80203996    0.15875967    0.02130000
opls_146-191    H    0.28564995    0.78677999    0.11279972    0.04160000
opls_146-192    H    0.32486004    0.75165012    0.08987017    0.04080000
opls_146-193    H    0.24377010    0.67261008    0.58704972    0.04160000
opls_146-194    H    0.20346006    0.70748015    0.61320028    0.04150000
opls_185-195    H    0.08933005    0.74023021    0.62913950    0.05780000
opls_185-196    H    0.12109001    0.73306015    0.43587017    0.05730000
opls_185-197    H    0.12355003    0.78192009    0.44750000    0.05690000
opls_146-198    H    0.37005000    0.74289005    0.82955939    0.08370000
opls_146-199    H    0.21822010    0.84809009    0.29400967    0.04160000
opls_144-200    H    0.15467013    0.23492007    0.93683011    0.02950000
opls_146-201    H    0.13893003    0.17498006    0.10373066    0.04490000
opls_146-202    H    0.10587000    0.10240004    0.11053039    0.05630000
opls_146-203    H    0.98745005    0.09733987    0.14187017    0.05570000
opls_146-204    H    0.02256983    0.17044989    0.13459945    0.12440000
opls_185-205    H    0.12720995    0.32874990    0.60023066    0.05690000
opls_185-206    H    0.07893000    0.28175999    0.61425967    0.05730000
opls_185-207    H    0.08505994    0.32004011    0.41896961    0.05790000
opls_146-208    H    0.07517014    0.04004006    0.12401934    0.05120000
opls_146-209    H    0.19335014    0.29991013    0.75491989    0.04160000
opls_144-210    H    0.19796002    0.43581015    0.15875967    0.02130000
opls_146-211    H    0.21321998    0.49887006    0.11279972    0.04160000
opls_146-212    H    0.24835012    0.57321001    0.08987017    0.04080000
opls_146-213    H    0.32739008    0.57115994    0.58704972    0.04160000
opls_146-214    H    0.29252016    0.49598019    0.61320028    0.04150000
opls_185-215    H    0.25976992    0.34910010    0.62913950    0.05780000
opls_185-216    H    0.26693999    0.38803015    0.43587017    0.05730000
opls_185-217    H    0.21808000    0.34163006    0.44750000    0.05690000
opls_146-218    H    0.25711021    0.62716019    0.82955939    0.08370000
opls_146-219    H    0.15191009    0.37012999    0.29400967    0.04160000
opls_144-220    H    0.76508001    0.91975026    0.93683011    0.02950000
opls_146-221    H    0.82502009    0.96394999    0.10373066    0.04490000
opls_146-222    H    0.89760000    0.00347016    0.11053039    0.05630000
opls_146-223    H    0.90265987    0.89010999    0.14187017    0.05570000
opls_146-224    H    0.82955002    0.85212001    0.13459945    0.12440000
opls_185-225    H    0.67125006    0.79845999    0.60023066    0.05690000
opls_185-226    H    0.71824024    0.79717024    0.61425967    0.05730000
opls_185-227    H    0.67995994    0.76502012    0.41896961    0.05780000
opls_146-228    H    0.95996006    0.03512987    0.12401934    0.05130000
opls_146-229    H    0.70009004    0.89343999    0.75491989    0.04160000
opls_144-230    H    0.56419018    0.76215019    0.15875967    0.02130000
opls_146-231    H    0.50113007    0.71434995    0.11279972    0.04160000
opls_146-232    H    0.42679000    0.67514016    0.08987017    0.04080000
opls_146-233    H    0.42884008    0.75622999    0.58704972    0.04160000
opls_146-234    H    0.50401992    0.79653995    0.61320028    0.04150000
opls_185-235    H    0.65089992    0.91066999    0.62913950    0.05780000
opls_185-236    H    0.61196989    0.87891000    0.43587017    0.05730000
opls_185-237    H    0.65837011    0.87645014    0.44750000    0.05690000
opls_146-238    H    0.37283994    0.62995006    0.82955939    0.08370000
opls_146-239    H    0.62987022    0.78178023    0.29400967    0.04160000
opls_144-240    H    0.91974999    0.15467004    0.43683011    0.02950000
opls_146-241    H    0.96395012    0.13893006    0.60373066    0.04500000
opls_146-242    H    0.00346985    0.10586991    0.61053039    0.05630000
opls_146-243    H    0.89010992    0.98744986    0.64187017    0.05570000
opls_146-244    H    0.85211985    0.02256990    0.63459945    0.12440000
opls_185-245    H    0.79846001    0.12720988    0.10023066    0.05690000
opls_185-246    H    0.79717009    0.07892994    0.11425967    0.05730000
opls_185-247    H    0.76501999    0.08505993    0.91896961    0.05780000
opls_146-248    H    0.03512994    0.07516992    0.62401934    0.05120000
opls_146-249    H    0.89344018    0.19335012    0.25491989    0.04160000
opls_144-250    H    0.76215005    0.19796004    0.65875967    0.02130000
opls_146-251    H    0.71435005    0.21322001    0.61279972    0.04160000
opls_146-252    H    0.67514011    0.24835018    0.58987017    0.04080000
opls_146-253    H    0.75622990    0.32738992    0.08704972    0.04160000
opls_146-254    H    0.79654008    0.29252015    0.11320028    0.04150000
opls_185-255    H    0.91067010    0.25977008    0.12913950    0.05780000
opls_185-256    H    0.87891014    0.26694015    0.93587017    0.05730000
opls_185-257    H    0.87644997    0.21807991    0.94750000    0.05690000
opls_146-258    H    0.62995000    0.25710995    0.32955939    0.08370000
opls_146-259    H    0.78177990    0.15190991    0.79400967    0.04170000
opls_144-260    H    0.84533002    0.76508023    0.43683011    0.02950000
opls_146-261    H    0.86107012    0.82502024    0.60373066    0.04490000
opls_146-262    H    0.89413015    0.89760026    0.61053039    0.05630000
opls_146-263    H    0.01254995    0.90266013    0.64187017    0.05570000
opls_146-264    H    0.97743017    0.82955011    0.63459945    0.12440000
opls_185-265    H    0.87279005    0.67125010    0.10023066    0.05690000
opls_185-266    H    0.92107000    0.71824001    0.11425967    0.05730000
opls_185-267    H    0.91494021    0.67996018    0.91896961    0.05780000
opls_146-268    H    0.92483001    0.95996024    0.62401934    0.05130000
opls_146-269    H    0.80665001    0.70009017    0.25491989    0.04160000
opls_144-270    H    0.80204013    0.56419015    0.65875967    0.02130000
opls_146-271    H    0.78678002    0.50112994    0.61279972    0.04160000
opls_146-272    H    0.75164988    0.42678999    0.58987017    0.04080000
opls_146-273    H    0.67260992    0.42884006    0.08704972    0.04160000
opls_146-274    H    0.70747999    0.50402010    0.11320028    0.04150000
opls_185-275    H    0.74023023    0.65090020    0.12913950    0.05780000
opls_185-276    H    0.73306015    0.61197015    0.93587017    0.05730000
opls_185-277    H    0.78192000    0.65836994    0.94750000    0.05690000
opls_146-278    H    0.74288994    0.37284011    0.32955939    0.08370000
opls_146-279    H    0.84808991    0.62987001    0.79400967    0.04160000
opls_144-280    H    0.23492014    0.08025003    0.43683011    0.02960000
opls_146-281    H    0.17497991    0.03605001    0.60373066    0.04490000
opls_146-282    H    0.10240015    0.99653013    0.61053039    0.05630000
opls_146-283    H    0.09734013    0.10989001    0.64187017    0.05570000
opls_146-284    H    0.17044998    0.14787999    0.63459945    0.12440000
opls_185-285    H    0.32874994    0.20154001    0.10023066    0.05690000
opls_185-286    H    0.28175991    0.20283005    0.11425967    0.05730000
opls_185-287    H    0.32004006    0.23497988    0.91896961    0.05790000
opls_146-288    H    0.04003994    0.96487013    0.62401934    0.05120000
opls_146-289    H    0.29990996    0.10656001    0.25491989    0.04160000
opls_144-290    H    0.43580997    0.23785011    0.65875967    0.02130000
opls_146-291    H    0.49886993    0.28565005    0.61279972    0.04160000
opls_146-292    H    0.57321015    0.32486013    0.58987017    0.04080000
opls_146-293    H    0.57115992    0.24377001    0.08704972    0.04160000
opls_146-294    H    0.49598008    0.20346005    0.11320028    0.04150000
opls_185-295    H    0.34910008    0.08933001    0.12913950    0.05780000
opls_185-296    H    0.38803011    0.12109000    0.93587017    0.05730000
opls_185-297    H    0.34163003    0.12355016    0.94750000    0.05690000
opls_146-298    H    0.62716006    0.37004994    0.32955939    0.08370000
opls_146-299    H    0.37012993    0.21822007    0.79400967    0.04160000
