#======================================================================
# Crystal Data Generated By AuToFF
#----------------------------------------------------------------------

data_AuToFF_phase_1

_cell_length_a                         29.8212
_cell_length_b                         29.8212
_cell_length_c                         3.6441
_cell_angle_alpha                      90.00
_cell_angle_beta                       90.00
_cell_angle_gamma                      120.00
_symmetry_space_group_name_H-M_alt     'P 1'
_symmetry_space_group_IT_number        1

loop_
_space_group_symop_operation_xyz
   'x, y, z'

loop_
   _atom_site_label
   _atom_site_type_symbol
   _atom_site_fract_x
   _atom_site_fract_y
   _atom_site_fract_z
   _atom_site_charge
opls_280-0    C    0.68316979    0.38628982    0.00000000    0.25960000
opls_145-1    C    0.62933999    0.35020011    0.00000000    -0.10600000
opls_142-2    C    0.59308983    0.36420000    0.00000000    0.10940000
opls_916-3    C    0.56078984    0.42317989    0.00000000    0.19690000
opls_145-4    C    0.51052999    0.38682998    0.00000000    -0.21410000
opls_280-5    C    0.44993985    0.46319976    0.00000000    0.21080000
opls_147-6    C    0.48669984    0.44983993    0.00000000    -0.02160000
opls_147-7    C    0.53694991    0.48674975    0.00000000    -0.02150000
opls_145-8    C    0.47409011    0.40005003    0.00000000    -0.21140000
opls_145-9    C    0.57332013    0.47290009    0.00000000    -0.23630000
opls_280-10    C    0.61371003    0.29688003    0.00000000    0.25960000
opls_145-11    C    0.64980002    0.27914010    0.00000000    -0.10600000
opls_142-12    C    0.63579985    0.22888981    0.00000000    0.10940000
opls_916-13    C    0.57682001    0.13760981    0.00000000    0.19690000
opls_145-14    C    0.61316994    0.12370014    0.00000000    -0.21410000
opls_280-15    C    0.53679987    0.98674007    0.00000000    0.21080000
opls_147-16    C    0.55016005    0.03685987    0.00000000    -0.02160000
opls_147-17    C    0.51325002    0.05019995    0.00000000    -0.02150000
opls_145-18    C    0.59995004    0.07403996    0.00000000    -0.21140000
opls_145-19    C    0.52709995    0.10042004    0.00000000    -0.23630000
opls_280-20    C    0.70312018    0.31683015    0.00000000    0.25960000
opls_145-21    C    0.72085999    0.37065979    0.00000000    -0.10600000
opls_142-22    C    0.77110979    0.40690980    0.00000000    0.10940000
opls_916-23    C    0.86238995    0.43920991    0.00000000    0.19690000
opls_145-24    C    0.87630007    0.48946988    0.00000000    -0.21410000
opls_280-25    C    0.01325974    0.55005978    0.00000000    0.21080000
opls_147-26    C    0.96313992    0.51329982    0.00000000    -0.02160000
opls_147-27    C    0.94979987    0.46304991    0.00000000    -0.02150000
opls_145-28    C    0.92595985    0.52591002    0.00000000    -0.21140000
opls_145-29    C    0.89957992    0.42667986    0.00000000    -0.23630000
opls_280-30    C    0.31683001    0.61370979    0.00000000    0.25960000
opls_145-31    C    0.37066001    0.64979989    0.00000000    -0.10600000
opls_142-32    C    0.40691017    0.63580000    0.00000000    0.10940000
opls_916-33    C    0.43921016    0.57682011    0.00000000    0.19690000
opls_145-34    C    0.48947001    0.61317002    0.00000000    -0.21410000
opls_280-35    C    0.55005995    0.53679985    0.00000000    0.21080000
opls_147-36    C    0.51330016    0.55016007    0.00000000    -0.02160000
opls_147-37    C    0.46304989    0.51324987    0.00000000    -0.02150000
opls_145-38    C    0.52590989    0.59994997    0.00000000    -0.21140000
opls_145-39    C    0.42667987    0.52709991    0.00000000    -0.23630000
opls_280-40    C    0.38628997    0.70311997    0.00000000    0.25960000
opls_145-41    C    0.35019998    0.72085990    0.00000000    -0.10600000
opls_142-42    C    0.36419996    0.77110980    0.00000000    0.10940000
opls_916-43    C    0.42317980    0.86238980    0.00000000    0.19690000
opls_145-44    C    0.38683006    0.87629986    0.00000000    -0.21410000
opls_280-45    C    0.46320013    0.01325993    0.00000000    0.21080000
opls_147-46    C    0.44983976    0.96313974    0.00000000    -0.02160000
opls_147-47    C    0.48674998    0.94980005    0.00000000    -0.02150000
opls_145-48    C    0.40004996    0.92596004    0.00000000    -0.21140000
opls_145-49    C    0.47290005    0.89957996    0.00000000    -0.23630000
opls_280-50    C    0.29687982    0.68316985    0.00000000    0.25960000
opls_145-51    C    0.27913982    0.62933983    0.00000000    -0.10600000
opls_142-52    C    0.22889002    0.59308981    0.00000000    0.10940000
opls_916-53    C    0.13761005    0.56079009    0.00000000    0.19690000
opls_145-54    C    0.12369993    0.51053012    0.00000000    -0.21410000
opls_280-55    C    0.98674006    0.44993983    0.00000000    0.21080000
opls_147-56    C    0.03685988    0.48669980    0.00000000    -0.02160000
opls_147-57    C    0.05020013    0.53695009    0.00000000    -0.02150000
opls_145-58    C    0.07404015    0.47408998    0.00000000    -0.21140000
opls_145-59    C    0.10041988    0.57331975    0.00000000    -0.23620000
opls_238-60    N    0.60003985    0.41162987    0.00000000    -0.29340000
opls_238-61    N    0.58836986    0.18840994    0.00000000    -0.29340000
opls_238-62    N    0.81158977    0.39995981    0.00000000    -0.29340000
opls_238-63    N    0.39995996    0.58836975    0.00000000    -0.29340000
opls_238-64    N    0.41163014    0.81159006    0.00000000    -0.29340000
opls_238-65    N    0.18841004    0.60003980    0.00000000    -0.29340000
opls_281-66    O    0.59342005    0.56872011    0.00000000    -0.36940000
opls_281-67    O    0.69759985    0.43013995    0.00000000    -0.39370000
opls_281-68    O    0.43128015    0.02469999    0.00000000    -0.36920000
opls_281-69    O    0.56985999    0.26745998    0.00000000    -0.39370000
opls_281-70    O    0.97529980    0.40657990    0.00000000    -0.36940000
opls_281-71    O    0.73254016    0.30240007    0.00000000    -0.39360000
opls_281-72    O    0.40657995    0.43127989    0.00000000    -0.36940000
opls_281-73    O    0.30240015    0.56986005    0.00000000    -0.39370000
opls_281-74    O    0.56871985    0.97530001    0.00000000    -0.36930000
opls_281-75    O    0.43014001    0.73254002    0.00000000    -0.39370000
opls_281-76    O    0.02470020    0.59342010    0.00000000    -0.36940000
opls_281-77    O    0.26745984    0.69759993    0.00000000    -0.39370000
opls_144-78    H    0.44436003    0.66767999    0.00000000    0.11390000
opls_146-79    H    0.50176991    0.65195974    0.00000000    0.23270000
opls_146-80    H    0.56439014    0.62874004    0.00000000    0.23260000
opls_146-81    H    0.38810000    0.49878998    0.00000000    0.23260000
opls_910-82    H    0.63518005    0.44225995    0.00000000    0.27890000
opls_144-83    H    0.33232001    0.77667979    0.00000000    0.11390000
opls_146-84    H    0.34803979    0.84980980    0.00000000    0.23260000
opls_146-85    H    0.37126010    0.93564992    0.00000000    0.23260000
opls_146-86    H    0.50121009    0.88931004    0.00000000    0.23260000
opls_910-87    H    0.55773996    0.19292014    0.00000000    0.27890000
opls_144-88    H    0.22331976    0.55563984    0.00000000    0.11390000
opls_146-89    H    0.15019011    0.49823007    0.00000000    0.23260000
opls_146-90    H    0.06435009    0.43561004    0.00000000    0.23260000
opls_146-91    H    0.11068991    0.61189998    0.00000000    0.23260000
opls_910-92    H    0.80707999    0.36481992    0.00000000    0.27890000
opls_144-93    H    0.55563997    0.33232001    0.00000000    0.11390000
opls_146-94    H    0.49822990    0.34803988    0.00000000    0.23260000
opls_146-95    H    0.43560986    0.37125996    0.00000000    0.23260000
opls_146-96    H    0.61190000    0.50121002    0.00000000    0.23260000
opls_910-97    H    0.36481995    0.55774005    0.00000000    0.27890000
opls_144-98    H    0.66767979    0.22331983    0.00000000    0.11390000
opls_146-99    H    0.65196002    0.15018981    0.00000000    0.23260000
opls_146-100    H    0.62873990    0.06435008    0.00000000    0.23260000
opls_146-101    H    0.49878991    0.11068996    0.00000000    0.23260000
opls_910-102    H    0.44226004    0.80707986    0.00000000    0.27890000
opls_144-103    H    0.77668004    0.44435977    0.00000000    0.11390000
opls_146-104    H    0.84980989    0.50176993    0.00000000    0.23260000
opls_146-105    H    0.93564991    0.56438996    0.00000000    0.23260000
opls_146-106    H    0.88931009    0.38810002    0.00000000    0.23260000
opls_910-107    H    0.19292001    0.63518008    0.00000000    0.27890000
