#======================================================================
# Crystal Data Generated By AuToFF
#----------------------------------------------------------------------

data_AuToFF_phase_1

_cell_length_a                         40.3633
_cell_length_b                         40.3633
_cell_length_c                         4.1670
_cell_angle_alpha                      90.00
_cell_angle_beta                       90.00
_cell_angle_gamma                      120.00
_symmetry_space_group_name_H-M_alt     'P 1'
_symmetry_space_group_IT_number        1

loop_
_space_group_symop_operation_xyz
   'x, y, z'

loop_
   _atom_site_label
   _atom_site_type_symbol
   _atom_site_fract_x
   _atom_site_fract_y
   _atom_site_fract_z
   _atom_site_charge
opls_145-0    C    0.62378006    0.31281991    0.91706983    -0.06670000
opls_700-1    C    0.64399001    0.28985995    0.91820014    0.09400000
opls_700-2    C    0.62395014    0.37998017    0.92981042    0.10290000
opls_145-3    C    0.64115017    0.41918014    0.77606911    -0.08250000
opls_145-4    C    0.62123014    0.44210004    0.79939045    -0.11360000
opls_145-5    C    0.58338002    0.42620018    0.96706024    0.20430000
opls_145-6    C    0.56566001    0.38696016    0.11808015    -0.11180000
opls_145-7    C    0.58588998    0.36429000    0.10150948    -0.08300000
opls_142-8    C    0.52810002    0.44105014    0.08620110    0.04410000
opls_700-9    C    0.51432996    0.47164006    0.09638109    -0.08630000
opls_727-10    C    0.54236005    0.51411017    0.10198944    0.21330000
opls_727-11    C    0.52783009    0.54226013    0.10222942    0.21330000
opls_145-12    C    0.68718014    0.31096012    0.91706983    -0.06670000
opls_700-13    C    0.71014008    0.35412998    0.91820014    0.09400000
opls_700-14    C    0.62002013    0.24397007    0.92981042    0.10290000
opls_145-15    C    0.58081993    0.22196990    0.77606911    -0.08250000
opls_145-16    C    0.55790004    0.17912989    0.79939045    -0.11360000
opls_145-17    C    0.57380004    0.15718007    0.96706024    0.20430000
opls_145-18    C    0.61304004    0.17869992    0.11808015    -0.11180000
opls_145-19    C    0.63571001    0.22160001    0.10150948    -0.08300000
opls_142-20    C    0.55894993    0.08705004    0.08620110    0.04410000
opls_700-21    C    0.52836009    0.04269011    0.09638109    -0.08630000
opls_727-22    C    0.48588999    0.02825009    0.10198944    0.21330000
opls_727-23    C    0.45774004    0.98557000    0.10222942    0.21330000
opls_145-24    C    0.68904004    0.37621997    0.91706983    -0.06670000
opls_700-25    C    0.64587015    0.35601007    0.91820014    0.09400000
opls_700-26    C    0.75603012    0.37605005    0.92981042    0.10290000
opls_145-27    C    0.77802990    0.35884996    0.77606911    -0.08250000
opls_145-28    C    0.82087007    0.37877006    0.79939045    -0.11360000
opls_145-29    C    0.84282008    0.41662004    0.96706024    0.20430000
opls_145-30    C    0.82129995    0.43433992    0.11808015    -0.11180000
opls_145-31    C    0.77840001    0.41411000    0.10150948    -0.08300000
opls_142-32    C    0.91294995    0.47190010    0.08620110    0.04410000
opls_700-33    C    0.95731009    0.48567012    0.09638109    -0.08630000
opls_727-34    C    0.97175010    0.45764003    0.10198944    0.21330000
opls_727-35    C    0.01443001    0.47217016    0.10222942    0.21330000
opls_145-36    C    0.37621994    0.68718009    0.91706983    -0.06670000
opls_700-37    C    0.35600999    0.71014005    0.91820014    0.09400000
opls_700-38    C    0.37605000    0.62002012    0.92981042    0.10290000
opls_145-39    C    0.35884997    0.58082015    0.77606911    -0.08250000
opls_145-40    C    0.37876986    0.55789996    0.79939045    -0.11360000
opls_145-41    C    0.41662012    0.57380011    0.96706024    0.20430000
opls_145-42    C    0.43434014    0.61304013    0.11808015    -0.11180000
opls_145-43    C    0.41411002    0.63571000    0.10150948    -0.08300000
opls_142-44    C    0.47190012    0.55895014    0.08620110    0.04410000
opls_700-45    C    0.48567004    0.52835994    0.09638109    -0.08630000
opls_727-46    C    0.45764009    0.48589012    0.10198944    0.21330000
opls_727-47    C    0.47217005    0.45774015    0.10222942    0.21330000
opls_145-48    C    0.31282000    0.68904017    0.91706983    -0.06670000
opls_700-49    C    0.28985992    0.64587002    0.91820014    0.09400000
opls_700-50    C    0.37997987    0.75602993    0.92981042    0.10290000
opls_145-51    C    0.41918007    0.77803010    0.77606911    -0.08250000
opls_145-52    C    0.44209996    0.82087011    0.79939045    -0.11360000
opls_145-53    C    0.42620010    0.84282021    0.96706024    0.20430000
opls_145-54    C    0.38695996    0.82130008    0.11808015    -0.11180000
opls_145-55    C    0.36428999    0.77839999    0.10150948    -0.08300000
opls_142-56    C    0.44105007    0.91294996    0.08620110    0.04410000
opls_700-57    C    0.47164005    0.95731018    0.09638109    -0.08630000
opls_727-58    C    0.51411015    0.97175020    0.10198944    0.21330000
opls_727-59    C    0.54225996    0.01443000    0.10222942    0.21330000
opls_145-60    C    0.31095996    0.62378003    0.91706983    -0.06670000
opls_700-61    C    0.35412985    0.64398993    0.91820014    0.09400000
opls_700-62    C    0.24396988    0.62394995    0.92981042    0.10290000
opls_145-63    C    0.22197010    0.64115004    0.77606911    -0.08250000
opls_145-64    C    0.17912993    0.62122994    0.79939045    -0.11360000
opls_145-65    C    0.15717992    0.58337996    0.96706024    0.20430000
opls_145-66    C    0.17870005    0.56566008    0.11808015    -0.11180000
opls_145-67    C    0.22159999    0.58589000    0.10150948    -0.08300000
opls_142-68    C    0.08705019    0.52810019    0.08620110    0.04410000
opls_700-69    C    0.04269005    0.51433016    0.09638109    -0.08630000
opls_727-70    C    0.02824990    0.54235997    0.10198944    0.21330000
opls_727-71    C    0.98557013    0.52783013    0.10222942    0.21330000
opls_750-72    N    0.56523001    0.45179004    0.99041997    -0.24280000
opls_750-73    N    0.54821007    0.11344006    0.99041997    -0.24280000
opls_750-74    N    0.88655992    0.43476990    0.99041997    -0.24280000
opls_750-75    N    0.43476999    0.54820996    0.99041997    -0.24280000
opls_750-76    N    0.45179007    0.88656022    0.99041997    -0.24280000
opls_750-77    N    0.11344008    0.56523010    0.99041997    -0.24280000
opls_719-78    F    0.44588994    0.41656997    0.10586993    -0.16340000
opls_719-79    F    0.58324993    0.52767994    0.11549076    -0.16340000
opls_719-80    F    0.58342991    0.02932002    0.10586993    -0.16340000
opls_719-81    F    0.47232008    0.05557015    0.11549076    -0.16340000
opls_719-82    F    0.97067991    0.55411001    0.10586993    -0.16340000
opls_719-83    F    0.94442999    0.41674992    0.11549076    -0.16340000
opls_719-84    F    0.55411006    0.58343003    0.10586993    -0.16340000
opls_719-85    F    0.41675007    0.47232006    0.11549076    -0.16340000
opls_719-86    F    0.41657009    0.97067998    0.10586993    -0.16340000
opls_719-87    F    0.52768006    0.94443014    0.11549076    -0.16340000
opls_719-88    F    0.02932009    0.44588999    0.10586993    -0.16340000
opls_719-89    F    0.05557001    0.58325008    0.11549076    -0.16340000
opls_146-90    H    0.59063007    0.29698012    0.91897048    0.04240000
opls_146-91    H    0.66965018    0.43203014    0.63213103    0.04250000
opls_146-92    H    0.63488003    0.47241990    0.68329014    0.04250000
opls_146-93    H    0.53718010    0.37424004    0.26106072    0.04250000
opls_146-94    H    0.57229007    0.33511016    0.23568994    0.04250000
opls_144-95    H    0.50598015    0.40923010    0.14316055    0.02920000
opls_146-96    H    0.70302006    0.29364989    0.91897048    0.04240000
opls_146-97    H    0.56797002    0.23762002    0.63213103    0.04250000
opls_146-98    H    0.52757998    0.16245991    0.68329014    0.04250000
opls_146-99    H    0.62575996    0.16293994    0.26106072    0.04250000
opls_146-100    H    0.66489000    0.23718004    0.23568994    0.04250000
opls_144-101    H    0.59076997    0.09675005    0.14316055    0.02920000
opls_146-102    H    0.70634987    0.40936999    0.91897048    0.04240000
opls_146-103    H    0.76237995    0.33035012    0.63213103    0.04250000
opls_146-104    H    0.83753985    0.36511991    0.68329014    0.04250000
opls_146-105    H    0.83705994    0.46282002    0.26106072    0.04250000
opls_146-106    H    0.76282007    0.42771009    0.23568994    0.04250000
opls_144-107    H    0.90325002    0.49402014    0.14316055    0.02920000
opls_146-108    H    0.40937007    0.70302017    0.91897048    0.04240000
opls_146-109    H    0.33034996    0.56797015    0.63213103    0.04250000
opls_146-110    H    0.36511997    0.52758010    0.68329014    0.04250000
opls_146-111    H    0.46281990    0.62575996    0.26106072    0.04250000
opls_146-112    H    0.42771007    0.66489013    0.23568994    0.04250000
opls_144-113    H    0.49401999    0.59077019    0.14316055    0.02920000
opls_146-114    H    0.29697994    0.70635011    0.91897048    0.04240000
opls_146-115    H    0.43202998    0.76237998    0.63213103    0.04250000
opls_146-116    H    0.47242002    0.83754009    0.68329014    0.04250000
opls_146-117    H    0.37424004    0.83706006    0.26106072    0.04250000
opls_146-118    H    0.33511000    0.76281996    0.23568994    0.04250000
opls_144-119    H    0.40923003    0.90324995    0.14316055    0.02920000
opls_146-120    H    0.29365013    0.59063001    0.91897048    0.04240000
opls_146-121    H    0.23762019    0.66965016    0.63213103    0.04250000
opls_146-122    H    0.16246015    0.63488009    0.68329014    0.04250000
opls_146-123    H    0.16294006    0.53717998    0.26106072    0.04250000
opls_146-124    H    0.23718007    0.57229019    0.23568994    0.04250000
opls_144-125    H    0.09675012    0.50598015    0.14316055    0.02920000
