#======================================================================
# Crystal Data Generated By AuToFF
#----------------------------------------------------------------------

data_AuToFF_phase_1

_cell_length_a                         32.1830
_cell_length_b                         32.1830
_cell_length_c                         3.3560
_cell_angle_alpha                      90.00
_cell_angle_beta                       90.00
_cell_angle_gamma                      90.00
_symmetry_space_group_name_H-M_alt     'P 1'
_symmetry_space_group_IT_number        1

loop_
_space_group_symop_operation_xyz
   'x, y, z'

loop_
   _atom_site_label
   _atom_site_type_symbol
   _atom_site_fract_x
   _atom_site_fract_y
   _atom_site_fract_z
   _atom_site_charge
opls_261-0    C    0.02049001    0.50000000    0.50000000    -0.00690000
opls_261-1    C    0.05770003    0.50000000    0.50000000    -0.08160000
opls_145-2    C    0.10207998    0.50000000    0.50000000    0.07860000
opls_145-3    C    0.18852997    0.50000000    0.50000000    -0.26700000
opls_261-4    C    0.97950999    0.50000000    0.50000000    -0.00690000
opls_261-5    C    0.94229997    0.50000000    0.50000000    -0.08650000
opls_145-6    C    0.89792996    0.50000000    0.50000000    0.07860000
opls_145-7    C    0.81147003    0.50000000    0.50000000    -0.26700000
opls_261-8    C    0.50000000    0.02049001    0.50000000    -0.00690000
opls_261-9    C    0.50000000    0.05770003    0.50000000    -0.08160000
opls_145-10    C    0.50000000    0.10207998    0.50000000    0.07860000
opls_145-11    C    0.50000000    0.18852997    0.50000000    -0.26700000
opls_261-12    C    0.50000000    0.97950999    0.50000000    -0.00690000
opls_261-13    C    0.50000000    0.94229997    0.50000000    -0.08650000
opls_145-14    C    0.50000000    0.89792996    0.50000000    0.07860000
opls_145-15    C    0.50000000    0.81147003    0.50000000    -0.26700000
opls_145-16    C    0.12375012    0.46474008    0.50000000    -0.21270000
opls_145-17    C    0.16681012    0.46474008    0.50000000    -0.13630000
opls_166-18    C    0.30064009    0.48054998    0.50000000    0.16350000
opls_145-19    C    0.33741012    0.45786005    0.50000000    -0.23380000
opls_716-20    C    0.37382003    0.48054998    0.50000000    -0.02400000
opls_543-21    C    0.41448000    0.46903987    0.50000000    0.35220000
opls_145-22    C    0.87624988    0.53525992    0.50000000    -0.21270000
opls_145-23    C    0.83318988    0.53525992    0.50000000    -0.13630000
opls_166-24    C    0.69935991    0.51945002    0.50000000    0.16350000
opls_145-25    C    0.66258988    0.54213995    0.50000000    -0.23380000
opls_716-26    C    0.62617997    0.51945002    0.50000000    -0.02400000
opls_543-27    C    0.58552000    0.53096013    0.50000000    0.35220000
opls_145-28    C    0.53525992    0.12375012    0.50000000    -0.21270000
opls_145-29    C    0.53525992    0.16681012    0.50000000    -0.13630000
opls_166-30    C    0.51945002    0.30064009    0.50000000    0.16350000
opls_145-31    C    0.54213995    0.33741012    0.50000000    -0.23380000
opls_716-32    C    0.51945002    0.37382003    0.50000000    -0.02400000
opls_543-33    C    0.53096013    0.41448000    0.50000000    0.35220000
opls_145-34    C    0.46474008    0.87624988    0.50000000    -0.21270000
opls_145-35    C    0.46474008    0.83318988    0.50000000    -0.13630000
opls_166-36    C    0.48054998    0.69935991    0.50000000    0.16350000
opls_145-37    C    0.45786005    0.66258988    0.50000000    -0.23380000
opls_716-38    C    0.48054998    0.62617997    0.50000000    -0.02400000
opls_543-39    C    0.46903987    0.58552000    0.50000000    0.35220000
opls_145-40    C    0.87624988    0.46474008    0.50000000    -0.21270000
opls_145-41    C    0.83318988    0.46474008    0.50000000    -0.13630000
opls_166-42    C    0.69935991    0.48054998    0.50000000    0.16350000
opls_145-43    C    0.66258988    0.45786005    0.50000000    -0.23380000
opls_716-44    C    0.62617997    0.48054998    0.50000000    -0.02400000
opls_543-45    C    0.58552000    0.46903987    0.50000000    0.35220000
opls_145-46    C    0.12375012    0.53525992    0.50000000    -0.21270000
opls_145-47    C    0.16681012    0.53525992    0.50000000    -0.13630000
opls_166-48    C    0.30064009    0.51945002    0.50000000    0.16350000
opls_145-49    C    0.33741012    0.54213995    0.50000000    -0.23380000
opls_716-50    C    0.37382003    0.51945002    0.50000000    -0.02400000
opls_543-51    C    0.41448000    0.53096013    0.50000000    0.35220000
opls_145-52    C    0.46474008    0.12375012    0.50000000    -0.21270000
opls_145-53    C    0.46474008    0.16681012    0.50000000    -0.13630000
opls_166-54    C    0.48054998    0.30064009    0.50000000    0.16350000
opls_145-55    C    0.45786005    0.33741012    0.50000000    -0.23380000
opls_716-56    C    0.48054998    0.37382003    0.50000000    -0.02400000
opls_543-57    C    0.46903987    0.41448000    0.50000000    0.35220000
opls_145-58    C    0.53525992    0.87624988    0.50000000    -0.21270000
opls_145-59    C    0.53525992    0.83318988    0.50000000    -0.13630000
opls_166-60    C    0.51945002    0.69935991    0.50000000    0.16350000
opls_145-61    C    0.54213995    0.66258988    0.50000000    -0.23380000
opls_716-62    C    0.51945002    0.62617997    0.50000000    -0.02400000
opls_543-63    C    0.53096013    0.58552000    0.50000000    0.35210000
MOF2_B_2-64    B    0.23665009    0.50000000    0.50000000    0.52510000
MOF2_B_2-65    B    0.76334991    0.50000000    0.50000000    0.52380000
MOF2_B_2-66    B    0.50000000    0.23665009    0.50000000    0.52520000
MOF2_B_2-67    B    0.50000000    0.76334991    0.50000000    0.52380000
opls_542-68    N    0.44032004    0.50000000    0.50000000    -0.44440000
opls_542-69    N    0.55967996    0.50000000    0.50000000    -0.44440000
opls_542-70    N    0.50000000    0.44032004    0.50000000    -0.44460000
opls_542-71    N    0.50000000    0.55967996    0.50000000    -0.44440000
opls_750-72    N    0.42804990    0.42804990    0.50000000    -0.43850000
opls_750-73    N    0.57195010    0.57195010    0.50000000    -0.43860000
opls_750-74    N    0.57195010    0.42804990    0.50000000    -0.43850000
opls_750-75    N    0.42804990    0.57195010    0.50000000    -0.43860000
opls_167-76    O    0.26131995    0.46414007    0.50000000    -0.34980000
opls_167-77    O    0.73868999    0.53585993    0.50000000    -0.34980000
opls_167-78    O    0.53585993    0.26131995    0.50000000    -0.34980000
opls_167-79    O    0.46414007    0.73868999    0.50000000    -0.34980000
opls_167-80    O    0.73868999    0.46414007    0.50000000    -0.34990000
opls_167-81    O    0.26131995    0.53585993    0.50000000    -0.34980000
opls_167-82    O    0.46414007    0.26131995    0.50000000    -0.34980000
opls_167-83    O    0.53585993    0.73868999    0.50000000    -0.34980000
opls_146-84    H    0.10854986    0.43675015    0.50000000    0.22610000
opls_146-85    H    0.18203990    0.43672995    0.50000000    0.22610000
opls_146-86    H    0.33698008    0.42612994    0.50000000    0.22610000
opls_146-87    H    0.89146009    0.56324985    0.50000000    0.22610000
opls_146-88    H    0.81796010    0.56327005    0.50000000    0.22610000
opls_146-89    H    0.66301992    0.57388000    0.50000000    0.22610000
opls_146-90    H    0.56324985    0.10854986    0.50000000    0.22610000
opls_146-91    H    0.56327005    0.18203990    0.50000000    0.22610000
opls_146-92    H    0.57388000    0.33698008    0.50000000    0.22610000
opls_146-93    H    0.43675015    0.89146009    0.50000000    0.22610000
opls_146-94    H    0.43672995    0.81796010    0.50000000    0.22610000
opls_146-95    H    0.42612994    0.66301992    0.50000000    0.22610000
opls_146-96    H    0.89146009    0.43675015    0.50000000    0.22610000
opls_146-97    H    0.81796010    0.43672995    0.50000000    0.22610000
opls_146-98    H    0.66301992    0.42612994    0.50000000    0.22600000
opls_146-99    H    0.10854986    0.56324985    0.50000000    0.22610000
opls_146-100    H    0.18203990    0.56327005    0.50000000    0.22610000
opls_146-101    H    0.33698008    0.57388000    0.50000000    0.22610000
opls_146-102    H    0.43675015    0.10854986    0.50000000    0.22610000
opls_146-103    H    0.43672995    0.18203990    0.50000000    0.22610000
opls_146-104    H    0.42612994    0.33698008    0.50000000    0.22610000
opls_146-105    H    0.56324985    0.89146009    0.50000000    0.22610000
opls_146-106    H    0.56327005    0.81796010    0.50000000    0.22610000
opls_146-107    H    0.57388000    0.66301992    0.50000000    0.22610000
Zn2+-108    Zn    0.50000000    0.50000000    0.50000000    0.65260000
