#======================================================================
# Crystal Data Generated By AuToFF
#----------------------------------------------------------------------

data_AuToFF_phase_1

_cell_length_a                         25.4170
_cell_length_b                         25.4170
_cell_length_c                         12.3770
_cell_angle_alpha                      90.00
_cell_angle_beta                       90.00
_cell_angle_gamma                      90.00
_symmetry_space_group_name_H-M_alt     'P 1'
_symmetry_space_group_IT_number        1

loop_
_space_group_symop_operation_xyz
   'x, y, z'

loop_
   _atom_site_label
   _atom_site_type_symbol
   _atom_site_fract_x
   _atom_site_fract_y
   _atom_site_fract_z
   _atom_site_charge
opls_145-0    C    0.30599992    0.50800016    0.22142038    0.23720000
opls_145-1    C    0.28299996    0.53400008    0.30841965    -0.13490000
opls_145-2    C    0.22800016    0.53299996    0.32442030    -0.09390000
opls_137-3    C    0.46599992    0.54299996    0.13342005    -0.01200000
opls_700-4    C    0.19500020    0.50899988    0.25042013    0.07530000
opls_700-5    C    0.13700004    0.50700004    0.26742021    -0.10860000
opls_145-6    C    0.21800016    0.48299996    0.15442030    -0.09010000
opls_145-7    C    0.27199984    0.48000000    0.14241981    -0.10380000
opls_142-8    C    0.38899988    0.48299996    0.13941989    -0.00770000
opls_141-9    C    0.48000000    0.44899988    0.13142038    0.03730000
opls_139-10    C    0.44500020    0.49199984    0.13342005    0.05630000
opls_507-11    C    0.11199984    0.45500020    0.27342005    0.22960000
opls_716-12    C    0.14000000    0.40800016    0.27541973    -0.15580000
opls_507-13    C    0.05499980    0.39199984    0.27142038    0.22180000
opls_716-14    C    0.10400008    0.36800016    0.27142038    -0.15000000
opls_145-15    C    0.69400008    0.49199984    0.22142038    0.23730000
opls_145-16    C    0.71700004    0.46599992    0.30841965    -0.13490000
opls_145-17    C    0.77199984    0.46700004    0.32442030    -0.09400000
opls_137-18    C    0.53400008    0.45700004    0.13342005    -0.01200000
opls_700-19    C    0.80500020    0.49100012    0.25042013    0.07530000
opls_700-20    C    0.86299996    0.49299996    0.26742021    -0.10860000
opls_145-21    C    0.78199984    0.51700004    0.15442030    -0.09010000
opls_145-22    C    0.72800016    0.52000000    0.14241981    -0.10380000
opls_142-23    C    0.61100012    0.51700004    0.13941989    -0.00770000
opls_141-24    C    0.52000000    0.55100012    0.13142038    0.03730000
opls_139-25    C    0.55499980    0.50800016    0.13342005    0.05630000
opls_507-26    C    0.88800016    0.54499980    0.27342005    0.22960000
opls_716-27    C    0.86000000    0.59199984    0.27541973    -0.15580000
opls_507-28    C    0.94500020    0.60800016    0.27142038    0.22170000
opls_716-29    C    0.89599992    0.63199984    0.27142038    -0.15000000
opls_145-30    C    0.99199984    0.80599992    0.22142038    0.23720000
opls_145-31    C    0.96599992    0.78299996    0.30841965    -0.13490000
opls_145-32    C    0.96700004    0.72800016    0.32442030    -0.09400000
opls_137-33    C    0.95700004    0.96599992    0.13342005    -0.01200000
opls_700-34    C    0.99100012    0.69500020    0.25042013    0.07530000
opls_700-35    C    0.99299996    0.63700004    0.26742021    -0.10860000
opls_145-36    C    0.01700004    0.71800016    0.15442030    -0.09010000
opls_145-37    C    0.02000000    0.77199984    0.14241981    -0.10380000
opls_142-38    C    0.01700004    0.88899988    0.13941989    -0.00770000
opls_141-39    C    0.05100012    0.98000000    0.13142038    0.03730000
opls_139-40    C    0.00800016    0.94500020    0.13342005    0.05630000
opls_543-41    C    0.04499980    0.61199984    0.27342005    0.20340000
opls_716-42    C    0.09199984    0.64000000    0.27541973    -0.15580000
opls_543-43    C    0.10800016    0.55499980    0.27142038    0.21630000
opls_716-44    C    0.13199984    0.60400008    0.27142038    -0.15000000
opls_145-45    C    0.00800016    0.19400008    0.22142038    0.23720000
opls_145-46    C    0.03400008    0.21700004    0.30841965    -0.13490000
opls_145-47    C    0.03299996    0.27199984    0.32442030    -0.09400000
opls_137-48    C    0.04299996    0.03400008    0.13342005    -0.01200000
opls_700-49    C    0.00899988    0.30499980    0.25042013    0.07530000
opls_700-50    C    0.00700004    0.36299996    0.26742021    -0.10860000
opls_145-51    C    0.98299996    0.28199984    0.15442030    -0.09010000
opls_145-52    C    0.98000000    0.22800016    0.14241981    -0.10380000
opls_142-53    C    0.98299996    0.11100012    0.13941989    -0.00770000
opls_141-54    C    0.94899988    0.02000000    0.13142038    0.03730000
opls_139-55    C    0.99199984    0.05499980    0.13342005    0.05630000
opls_543-56    C    0.95499980    0.38800016    0.27342005    0.20340000
opls_716-57    C    0.90800016    0.36000000    0.27541973    -0.15580000
opls_543-58    C    0.89199984    0.44500020    0.27142038    0.21630000
opls_716-59    C    0.86800016    0.39599992    0.27142038    -0.15000000
opls_145-60    C    0.19400008    0.99199984    0.77857962    0.23720000
opls_145-61    C    0.21700004    0.96599992    0.69158035    -0.13490000
opls_145-62    C    0.27199984    0.96700004    0.67557970    -0.09400000
opls_137-63    C    0.03400008    0.95700004    0.86657995    -0.01200000
opls_700-64    C    0.30499980    0.99100012    0.74957987    0.07530000
opls_700-65    C    0.36299996    0.99299996    0.73257979    -0.10860000
opls_145-66    C    0.28199984    0.01700004    0.84557970    -0.09010000
opls_145-67    C    0.22800016    0.02000000    0.85758019    -0.10380000
opls_142-68    C    0.11100012    0.01700004    0.86058011    -0.00770000
opls_141-69    C    0.02000000    0.05100012    0.86857962    0.03730000
opls_139-70    C    0.05499980    0.00800016    0.86657995    0.05630000
opls_507-71    C    0.38800016    0.04499980    0.72657995    0.22960000
opls_716-72    C    0.36000000    0.09199984    0.72458027    -0.15580000
opls_507-73    C    0.44500020    0.10800016    0.72857962    0.22170000
opls_716-74    C    0.39599992    0.13199984    0.72857962    -0.14990000
opls_145-75    C    0.80599992    0.00800016    0.77857962    0.23720000
opls_145-76    C    0.78299996    0.03400008    0.69158035    -0.13490000
opls_145-77    C    0.72800016    0.03299996    0.67557970    -0.09400000
opls_137-78    C    0.96599992    0.04299996    0.86657995    -0.01200000
opls_700-79    C    0.69500020    0.00899988    0.74957987    0.07530000
opls_700-80    C    0.63700004    0.00700004    0.73257979    -0.10860000
opls_145-81    C    0.71800016    0.98299996    0.84557970    -0.09010000
opls_145-82    C    0.77199984    0.98000000    0.85758019    -0.10370000
opls_142-83    C    0.88899988    0.98299996    0.86058011    -0.00770000
opls_141-84    C    0.98000000    0.94899988    0.86857962    0.03730000
opls_139-85    C    0.94500020    0.99199984    0.86657995    0.05630000
opls_507-86    C    0.61199984    0.95499980    0.72657995    0.22970000
opls_716-87    C    0.64000000    0.90800016    0.72458027    -0.15580000
opls_507-88    C    0.55499980    0.89199984    0.72857962    0.22170000
opls_716-89    C    0.60400008    0.86800016    0.72857962    -0.15000000
opls_145-90    C    0.50800016    0.69400008    0.77857962    0.23720000
opls_145-91    C    0.53400008    0.71700004    0.69158035    -0.13490000
opls_145-92    C    0.53299996    0.77199984    0.67557970    -0.09400000
opls_137-93    C    0.54299996    0.53400008    0.86657995    -0.01200000
opls_700-94    C    0.50899988    0.80500020    0.74957987    0.07530000
opls_700-95    C    0.50700004    0.86299996    0.73257979    -0.10860000
opls_145-96    C    0.48299996    0.78199984    0.84557970    -0.09010000
opls_145-97    C    0.48000000    0.72800016    0.85758019    -0.10380000
opls_142-98    C    0.48299996    0.61100012    0.86058011    -0.00770000
opls_141-99    C    0.44899988    0.52000000    0.86857962    0.03730000
opls_139-100    C    0.49199984    0.55499980    0.86657995    0.05630000
opls_543-101    C    0.45500020    0.88800016    0.72657995    0.20340000
opls_716-102    C    0.40800016    0.86000000    0.72458027    -0.15580000
opls_543-103    C    0.39199984    0.94500020    0.72857962    0.21640000
opls_716-104    C    0.36800016    0.89599992    0.72857962    -0.15000000
opls_145-105    C    0.49199984    0.30599992    0.77857962    0.23740000
opls_145-106    C    0.46599992    0.28299996    0.69158035    -0.13490000
opls_145-107    C    0.46700004    0.22800016    0.67557970    -0.09400000
opls_137-108    C    0.45700004    0.46599992    0.86657995    -0.01200000
opls_700-109    C    0.49100012    0.19500020    0.74957987    0.07540000
opls_700-110    C    0.49299996    0.13700004    0.73257979    -0.10860000
opls_145-111    C    0.51700004    0.21800016    0.84557970    -0.09010000
opls_145-112    C    0.52000000    0.27199984    0.85758019    -0.10380000
opls_142-113    C    0.51700004    0.38899988    0.86058011    -0.00770000
opls_141-114    C    0.55100012    0.48000000    0.86857962    0.03730000
opls_139-115    C    0.50800016    0.44500020    0.86657995    0.05630000
opls_543-116    C    0.54499980    0.11199984    0.72657995    0.20340000
opls_716-117    C    0.59199984    0.14000000    0.72458027    -0.15570000
opls_543-118    C    0.60800016    0.05499980    0.72857962    0.21630000
opls_716-119    C    0.63199984    0.10400008    0.72857962    -0.15000000
opls_750-120    N    0.35899988    0.51100012    0.20941989    -0.24400000
opls_542-121    N    0.05899988    0.44500020    0.27241981    -0.24430000
opls_750-122    N    0.64100012    0.48899988    0.20941989    -0.24390000
opls_542-123    N    0.94100012    0.55499980    0.27241981    -0.24430000
opls_750-124    N    0.98899988    0.85899988    0.20941989    -0.24400000
opls_542-125    N    0.05499980    0.55899988    0.27241981    -0.25850000
opls_750-126    N    0.01100012    0.14100012    0.20941989    -0.24400000
opls_542-127    N    0.94500020    0.44100012    0.27241981    -0.25850000
opls_750-128    N    0.14100012    0.98899988    0.79058011    -0.24390000
opls_542-129    N    0.44100012    0.05499980    0.72758019    -0.24430000
opls_750-130    N    0.85899988    0.01100012    0.79058011    -0.24400000
opls_542-131    N    0.55899988    0.94500020    0.72758019    -0.24430000
opls_750-132    N    0.51100012    0.64100012    0.79058011    -0.24400000
opls_542-133    N    0.44500020    0.94100012    0.72758019    -0.25850000
opls_750-134    N    0.48899988    0.35899988    0.79058011    -0.24390000
opls_542-135    N    0.55499980    0.05899988    0.72758019    -0.25840000
MOF2_Br-136    Br    0.09268993    0.96352992    0.12813040    -0.01740000
MOF2_Br-137    Br    0.90731007    0.03647008    0.12813040    -0.01740000
MOF2_Br-138    Br    0.53647008    0.59268993    0.12813040    -0.01740000
MOF2_Br-139    Br    0.46352992    0.40731007    0.12813040    -0.01740000
MOF2_Br-140    Br    0.40731007    0.53647008    0.87186960    -0.01740000
MOF2_Br-141    Br    0.59268993    0.46352992    0.87186960    -0.01740000
MOF2_Br-142    Br    0.96352992    0.90731007    0.87186960    -0.01740000
MOF2_Br-143    Br    0.03647008    0.09268993    0.87186960    -0.01740000
opls_146-144    H    0.30865012    0.55656018    0.36811990    0.04950000
opls_146-145    H    0.21016013    0.55215997    0.39920982    0.04950000
opls_140-146    H    0.43812999    0.57813983    0.13509009    0.05790000
opls_146-147    H    0.19117008    0.46537003    0.09008968    0.04950000
opls_146-148    H    0.28961994    0.45638982    0.07297003    0.04950000
opls_144-149    H    0.37000984    0.45220010    0.08498990    0.02920000
opls_547-150    H    0.18479994    0.40861982    0.27970025    0.04950000
opls_547-151    H    0.10707007    0.32328009    0.26841965    0.04950000
opls_146-152    H    0.69134988    0.44343982    0.36811990    0.04950000
opls_146-153    H    0.78983987    0.44784003    0.39920982    0.04950000
opls_140-154    H    0.56187001    0.42186017    0.13509009    0.05790000
opls_146-155    H    0.80882992    0.53462997    0.09008968    0.04960000
opls_146-156    H    0.71038006    0.54361018    0.07297003    0.04950000
opls_144-157    H    0.62999016    0.54779990    0.08498990    0.02920000
opls_547-158    H    0.81520006    0.59138018    0.27970025    0.04950000
opls_547-159    H    0.89292993    0.67671991    0.26841965    0.04950000
opls_146-160    H    0.94343982    0.80865012    0.36811990    0.04950000
opls_146-161    H    0.94784003    0.71016013    0.39920982    0.04950000
opls_140-162    H    0.92186017    0.93812999    0.13509009    0.05790000
opls_146-163    H    0.03462997    0.69117008    0.09008968    0.04950000
opls_146-164    H    0.04361018    0.78961994    0.07297003    0.04950000
opls_144-165    H    0.04779990    0.87000984    0.08498990    0.02920000
opls_545-166    H    0.02187984    0.53052996    0.27256039    0.28750000
opls_547-167    H    0.09138018    0.68479994    0.27970025    0.04960000
opls_547-168    H    0.17671991    0.60707007    0.26841965    0.04950000
opls_146-169    H    0.05656018    0.19134988    0.36811990    0.04950000
opls_146-170    H    0.05215997    0.28983987    0.39920982    0.04950000
opls_140-171    H    0.07813983    0.06187001    0.13509009    0.05790000
opls_146-172    H    0.96537003    0.30882992    0.09008968    0.04950000
opls_146-173    H    0.95638982    0.21038006    0.07297003    0.04950000
opls_144-174    H    0.95220010    0.12999016    0.08498990    0.02920000
opls_545-175    H    0.97812016    0.46947004    0.27256039    0.28760000
opls_547-176    H    0.90861982    0.31520006    0.27970025    0.04950000
opls_547-177    H    0.82328009    0.39292993    0.26841965    0.04950000
opls_146-178    H    0.19134988    0.94343982    0.63188010    0.04950000
opls_146-179    H    0.28983987    0.94784003    0.60079018    0.04950000
opls_140-180    H    0.06187001    0.92186017    0.86490991    0.05790000
opls_146-181    H    0.30882992    0.03462997    0.90991032    0.04950000
opls_146-182    H    0.21038006    0.04361018    0.92702997    0.04950000
opls_144-183    H    0.12999016    0.04779990    0.91501010    0.02920000
opls_547-184    H    0.31520006    0.09138018    0.72029975    0.04950000
opls_547-185    H    0.39292993    0.17671991    0.73158035    0.04950000
opls_146-186    H    0.80865012    0.05656018    0.63188010    0.04950000
opls_146-187    H    0.71016013    0.05215997    0.60079018    0.04960000
opls_140-188    H    0.93812999    0.07813983    0.86490991    0.05790000
opls_146-189    H    0.69117008    0.96537003    0.90991032    0.04950000
opls_146-190    H    0.78961994    0.95638982    0.92702997    0.04950000
opls_144-191    H    0.87000984    0.95220010    0.91501010    0.02920000
opls_547-192    H    0.68479994    0.90861982    0.72029975    0.04950000
opls_547-193    H    0.60707007    0.82328009    0.73158035    0.04950000
opls_146-194    H    0.55656018    0.69134988    0.63188010    0.04950000
opls_146-195    H    0.55215997    0.78983987    0.60079018    0.04950000
opls_140-196    H    0.57813983    0.56187001    0.86490991    0.05790000
opls_146-197    H    0.46537003    0.80882992    0.90991032    0.04950000
opls_146-198    H    0.45638982    0.71038006    0.92702997    0.04950000
opls_144-199    H    0.45220010    0.62999016    0.91501010    0.02920000
opls_545-200    H    0.47812016    0.96947004    0.72743961    0.28760000
opls_547-201    H    0.40861982    0.81520006    0.72029975    0.04950000
opls_547-202    H    0.32328009    0.89292993    0.73158035    0.04950000
opls_146-203    H    0.44343982    0.30865012    0.63188010    0.04950000
opls_146-204    H    0.44784003    0.21016013    0.60079018    0.04950000
opls_140-205    H    0.42186017    0.43812999    0.86490991    0.05790000
opls_146-206    H    0.53462997    0.19117008    0.90991032    0.04950000
opls_146-207    H    0.54361018    0.28961994    0.92702997    0.04950000
opls_144-208    H    0.54779990    0.37000984    0.91501010    0.02920000
opls_545-209    H    0.52187984    0.03052996    0.72743961    0.28750000
opls_547-210    H    0.59138018    0.18479994    0.72029975    0.04950000
opls_547-211    H    0.67671991    0.10707007    0.73158035    0.04950000
