#======================================================================
# Crystal Data Generated By AuToFF
#----------------------------------------------------------------------

data_AuToFF_phase_1

_cell_length_a                         37.6239
_cell_length_b                         37.6239
_cell_length_c                         3.6515
_cell_angle_alpha                      90.00
_cell_angle_beta                       90.00
_cell_angle_gamma                      120.00
_symmetry_space_group_name_H-M_alt     'P 1'
_symmetry_space_group_IT_number        1

loop_
_space_group_symop_operation_xyz
   'x, y, z'

loop_
   _atom_site_label
   _atom_site_type_symbol
   _atom_site_fract_x
   _atom_site_fract_y
   _atom_site_fract_z
   _atom_site_charge
opls_145-0    C    0.62392999    0.31411998    0.99700945    -0.16440000
opls_700-1    C    0.64277009    0.28992995    0.99709982    0.06800000
opls_700-2    C    0.62650985    0.38247996    0.99766945    0.06810000
opls_145-3    C    0.64578992    0.42215003    0.84386964    -0.12750000
opls_145-4    C    0.62660000    0.44577014    0.84911954    -0.15370000
opls_145-5    C    0.58734999    0.43012008    0.99553060    0.19860000
opls_145-6    C    0.56779004    0.39067005    0.14991100    -0.16760000
opls_145-7    C    0.58728006    0.36733015    0.15373956    -0.12700000
opls_142-8    C    0.53005011    0.44291008    0.01980008    0.07160000
opls_700-9    C    0.51484000    0.47226995    0.01858962    -0.05240000
opls_145-10    C    0.54224997    0.51482004    0.01844995    -0.23520000
opls_166-11    C    0.52763991    0.54249990    0.01918116    0.25850000
opls_145-12    C    0.68588004    0.30981010    0.99700945    -0.16440000
opls_700-13    C    0.71006998    0.35284019    0.99709982    0.06810000
opls_700-14    C    0.61751998    0.24402998    0.99766945    0.06810000
opls_145-15    C    0.57785013    0.22364006    0.84386964    -0.12750000
opls_145-16    C    0.55423004    0.18083003    0.84911954    -0.15960000
opls_145-17    C    0.56988006    0.15722987    0.99553060    0.19860000
opls_145-18    C    0.60933012    0.17712015    0.14991100    -0.16760000
opls_145-19    C    0.63266995    0.21995013    0.15373956    -0.12700000
opls_142-20    C    0.55709006    0.08713986    0.01980008    0.07160000
opls_700-21    C    0.52773012    0.04257003    0.01858962    -0.05240000
opls_145-22    C    0.48517997    0.02743004    0.01844995    -0.23520000
opls_166-23    C    0.45750011    0.98514022    0.01918116    0.25840000
opls_145-24    C    0.69018997    0.37606991    0.99700945    -0.16440000
opls_700-25    C    0.64716008    0.35723017    0.99709982    0.06800000
opls_700-26    C    0.75596991    0.37349006    0.99766945    0.06810000
opls_145-27    C    0.77635995    0.35420991    0.84386964    -0.12750000
opls_145-28    C    0.81917012    0.37340014    0.84911954    -0.15380000
opls_145-29    C    0.84276995    0.41265006    0.99553060    0.19860000
opls_145-30    C    0.82288000    0.43221011    0.14991100    -0.16760000
opls_145-31    C    0.78005014    0.41272003    0.15373956    -0.12700000
opls_142-32    C    0.91286009    0.46995005    0.01980008    0.07160000
opls_700-33    C    0.95742988    0.48516001    0.01858962    -0.05240000
opls_145-34    C    0.97257006    0.45774992    0.01844995    -0.23520000
opls_166-35    C    0.01486013    0.47236019    0.01918116    0.25840000
opls_145-36    C    0.37607001    0.68588002    0.99700945    -0.16440000
opls_700-37    C    0.35722991    0.71007005    0.99709982    0.06800000
opls_700-38    C    0.37349015    0.61752004    0.99766945    0.06810000
opls_145-39    C    0.35421008    0.57784997    0.84386964    -0.12750000
opls_145-40    C    0.37340016    0.55423016    0.84911954    -0.15380000
opls_145-41    C    0.41265001    0.56987992    0.99553060    0.19860000
opls_145-42    C    0.43220996    0.60932995    0.14991100    -0.16760000
opls_145-43    C    0.41272009    0.63267016    0.15373956    -0.12700000
opls_142-44    C    0.46994989    0.55708992    0.01980008    0.07160000
opls_700-45    C    0.48516000    0.52773005    0.01858962    -0.05240000
opls_145-46    C    0.45775003    0.48517996    0.01844995    -0.23520000
opls_166-47    C    0.47236009    0.45750010    0.01918116    0.25840000
opls_145-48    C    0.31412011    0.69019021    0.99700945    -0.16440000
opls_700-49    C    0.28993017    0.64716012    0.99709982    0.06800000
opls_700-50    C    0.38248002    0.75597002    0.99766945    0.06810000
opls_145-51    C    0.42214987    0.77635994    0.84386964    -0.12750000
opls_145-52    C    0.44576996    0.81916997    0.84911954    -0.15960000
opls_145-53    C    0.43011994    0.84277013    0.99553060    0.19860000
opls_145-54    C    0.39067004    0.82288016    0.14991100    -0.16760000
opls_145-55    C    0.36733021    0.78005018    0.15373956    -0.12700000
opls_142-56    C    0.44290994    0.91286014    0.01980008    0.07160000
opls_700-57    C    0.47226988    0.95742997    0.01858962    -0.05240000
opls_145-58    C    0.51482003    0.97256996    0.01844995    -0.23510000
opls_166-59    C    0.54250004    0.01486009    0.01918116    0.25840000
opls_145-60    C    0.30981003    0.62393009    0.99700945    -0.16440000
opls_700-61    C    0.35284007    0.64277013    0.99709982    0.06800000
opls_700-62    C    0.24403009    0.62650994    0.99766945    0.06810000
opls_145-63    C    0.22364005    0.64579009    0.84386964    -0.12750000
opls_145-64    C    0.18083003    0.62660017    0.84911954    -0.15950000
opls_145-65    C    0.15723005    0.58734994    0.99553060    0.19860000
opls_145-66    C    0.17712015    0.56779020    0.14991100    -0.16750000
opls_145-67    C    0.21994986    0.58727997    0.15373956    -0.12700000
opls_142-68    C    0.08713991    0.53004995    0.01980008    0.07160000
opls_700-69    C    0.04257012    0.51483999    0.01858962    -0.05240000
opls_145-70    C    0.02742994    0.54225008    0.01844995    -0.23510000
opls_166-71    C    0.98514002    0.52764012    0.01918116    0.25840000
opls_750-72    N    0.56907011    0.45566019    0.99255922    -0.34720000
opls_750-73    N    0.54434004    0.11341011    0.99255922    -0.34720000
opls_750-74    N    0.88659000    0.43093000    0.99255922    -0.34720000
opls_750-75    N    0.43093005    0.54434011    0.99255922    -0.34710000
opls_750-76    N    0.45566011    0.88659020    0.99255922    -0.34700000
opls_750-77    N    0.11341000    0.56907000    0.99255922    -0.34710000
opls_167-78    O    0.44499002    0.41525999    0.01990963    -0.40420000
opls_167-79    O    0.58474000    0.02973000    0.01990963    -0.40410000
opls_167-80    O    0.97026998    0.55501001    0.01990963    -0.40420000
opls_167-81    O    0.55500998    0.58474001    0.01990963    -0.40410000
opls_167-82    O    0.41526000    0.97027000    0.01990963    -0.40420000
opls_167-83    O    0.02973002    0.44498999    0.01990963    -0.40420000
opls_146-84    H    0.59092993    0.29930010    0.99709982    0.09780000
opls_146-85    H    0.67516012    0.43476019    0.70867041    0.12330000
opls_146-86    H    0.64174013    0.47607007    0.72844037    0.12230000
opls_146-87    H    0.53826999    0.37841989    0.28151992    0.11560000
opls_146-88    H    0.57197992    0.33801999    0.29166918    0.12170000
opls_144-89    H    0.50777000    0.41045015    0.03347118    0.10790000
opls_146-90    H    0.57496009    0.52649997    0.01892099    0.12220000
opls_168-91    H    0.41506007    0.40756002    0.02004108    0.30600000
opls_146-92    H    0.70070001    0.29162990    0.99709982    0.09780000
opls_146-93    H    0.56523994    0.24039990    0.70867041    0.12330000
opls_146-94    H    0.52392993    0.16567009    0.72844037    0.12280000
opls_146-95    H    0.62157987    0.15984992    0.28151992    0.11560000
opls_146-96    H    0.66198016    0.23396009    0.29166918    0.12170000
opls_144-97    H    0.58954994    0.09731994    0.03347118    0.10780000
opls_146-98    H    0.47349995    0.04845987    0.01892099    0.12220000
opls_168-99    H    0.59243983    0.00749987    0.02004108    0.30610000
opls_146-100    H    0.70837006    0.40907000    0.99709982    0.09790000
opls_146-101    H    0.75959994    0.32483991    0.70867041    0.12340000
opls_146-102    H    0.83433009    0.35826015    0.72844037    0.12280000
opls_146-103    H    0.84015015    0.46173018    0.28151992    0.11560000
opls_146-104    H    0.76603992    0.42801992    0.29166918    0.12170000
opls_144-105    H    0.90268006    0.49222990    0.03347118    0.10780000
opls_146-106    H    0.95153996    0.42504017    0.01892099    0.12220000
opls_168-107    H    0.99250009    0.58494011    0.02004108    0.30610000
opls_146-108    H    0.40907023    0.70070021    0.99709982    0.09780000
opls_146-109    H    0.32484003    0.56524012    0.70867041    0.12330000
opls_146-110    H    0.35825987    0.52392993    0.72844037    0.12280000
opls_146-111    H    0.46173001    0.62158011    0.28151992    0.11560000
opls_146-112    H    0.42802008    0.66198001    0.29166918    0.12180000
opls_144-113    H    0.49223015    0.58955015    0.03347118    0.10780000
opls_146-114    H    0.42503991    0.47350003    0.01892099    0.12220000
opls_168-115    H    0.58493993    0.59243998    0.02004108    0.30610000
opls_146-116    H    0.29929999    0.70837010    0.99709982    0.09780000
opls_146-117    H    0.43476006    0.75960010    0.70867041    0.12330000
opls_146-118    H    0.47607022    0.83433022    0.72844037    0.12280000
opls_146-119    H    0.37842013    0.84015008    0.28151992    0.11560000
opls_146-120    H    0.33801999    0.76604022    0.29166918    0.12170000
opls_144-121    H    0.41045006    0.90268006    0.03347118    0.10790000
opls_146-122    H    0.52650005    0.95154013    0.01892099    0.12220000
opls_168-123    H    0.40756017    0.99250013    0.02004108    0.30600000
opls_146-124    H    0.29162994    0.59093000    0.99709982    0.09780000
opls_146-125    H    0.24040006    0.67516009    0.70867041    0.12330000
opls_146-126    H    0.16567006    0.64174016    0.72844037    0.12290000
opls_146-127    H    0.15985001    0.53827012    0.28151992    0.11560000
opls_146-128    H    0.23396008    0.57198008    0.29166918    0.12170000
opls_144-129    H    0.09731994    0.50777010    0.03347118    0.10790000
opls_146-130    H    0.04846019    0.57496014    0.01892099    0.12220000
opls_168-131    H    0.00750006    0.41506019    0.02004108    0.30600000
