#======================================================================
# Crystal Data Generated By AuToFF
#----------------------------------------------------------------------

data_AuToFF_phase_1

_cell_length_a                         32.0100
_cell_length_b                         32.0100
_cell_length_c                         11.6300
_cell_angle_alpha                      90.00
_cell_angle_beta                       90.00
_cell_angle_gamma                      90.00
_symmetry_space_group_name_H-M_alt     'P 1'
_symmetry_space_group_IT_number        1

loop_
_space_group_symop_operation_xyz
   'x, y, z'

loop_
   _atom_site_label
   _atom_site_type_symbol
   _atom_site_fract_x
   _atom_site_fract_y
   _atom_site_fract_z
   _atom_site_charge
opls_261-0    C    0.53790003    0.73195002    0.59112038    -0.10630000
opls_145-1    C    0.03778007    0.37026992    0.47985039    -0.14090000
opls_145-2    C    0.03785005    0.40500000    0.55266036    -0.11090000
opls_261-3    C    0.03790003    0.23195002    0.09112038    -0.10630000
opls_145-4    C    0.53778007    0.87026992    0.97985039    -0.14090000
opls_145-5    C    0.53785005    0.90500000    0.05266036    -0.11090000
opls_261-6    C    0.96209997    0.76804998    0.09112038    -0.10620000
opls_145-7    C    0.46221993    0.12973008    0.97985039    -0.14090000
opls_145-8    C    0.46214995    0.09500000    0.05266036    -0.11090000
opls_261-9    C    0.46209997    0.26804998    0.59112038    -0.10630000
opls_145-10    C    0.96221993    0.62973008    0.47985039    -0.14090000
opls_145-11    C    0.96214995    0.59500000    0.55266036    -0.11090000
opls_261-12    C    0.26804998    0.03790003    0.84112038    -0.10630000
opls_145-13    C    0.62973008    0.53778007    0.72985039    -0.14090000
opls_145-14    C    0.59500000    0.53785005    0.80266036    -0.11090000
opls_261-15    C    0.76804998    0.53790003    0.34112038    -0.10630000
opls_145-16    C    0.12973008    0.03778007    0.22985039    -0.14090000
opls_145-17    C    0.09500000    0.03785005    0.30266036    -0.11090000
opls_261-18    C    0.23195002    0.46209997    0.34112038    -0.10630000
opls_145-19    C    0.87026992    0.96221993    0.22985039    -0.14090000
opls_145-20    C    0.90500000    0.96214995    0.30266036    -0.11090000
opls_261-21    C    0.73195002    0.96209997    0.84112038    -0.10630000
opls_145-22    C    0.37026992    0.46221993    0.72985039    -0.14080000
opls_145-23    C    0.40500000    0.46214995    0.80266036    -0.11090000
opls_261-24    C    0.96209997    0.73195002    0.15887962    -0.10630000
opls_145-25    C    0.46221993    0.37026992    0.27014961    -0.14090000
opls_145-26    C    0.46214995    0.40500000    0.19733964    -0.11080000
opls_261-27    C    0.46209997    0.23195002    0.65887962    -0.10630000
opls_145-28    C    0.96221993    0.87026992    0.77014961    -0.14090000
opls_145-29    C    0.96214995    0.90500000    0.69733964    -0.11090000
opls_261-30    C    0.53790003    0.76804998    0.65887962    -0.10630000
opls_145-31    C    0.03778007    0.12973008    0.77014961    -0.14090000
opls_145-32    C    0.03785005    0.09500000    0.69733964    -0.11090000
opls_261-33    C    0.03790003    0.26804998    0.15887962    -0.10630000
opls_145-34    C    0.53778007    0.62973008    0.27014961    -0.14090000
opls_145-35    C    0.53785005    0.59500000    0.19733964    -0.11090000
opls_261-36    C    0.23195002    0.03790003    0.90887962    -0.10620000
opls_145-37    C    0.87026992    0.53778007    0.02014961    -0.14090000
opls_145-38    C    0.90500000    0.53785005    0.94733964    -0.11090000
opls_261-39    C    0.73195002    0.53790003    0.40887962    -0.10630000
opls_145-40    C    0.37026992    0.03778007    0.52014961    -0.14090000
opls_145-41    C    0.40500000    0.03785005    0.44733964    -0.11090000
opls_261-42    C    0.26804998    0.46209997    0.40887962    -0.10630000
opls_145-43    C    0.62973008    0.96221993    0.52014961    -0.14090000
opls_145-44    C    0.59500000    0.96214995    0.44733964    -0.11080000
opls_261-45    C    0.76804998    0.96209997    0.90887962    -0.10630000
opls_145-46    C    0.12973008    0.46221993    0.02014961    -0.14090000
opls_145-47    C    0.09500000    0.46214995    0.94733964    -0.11090000
opls_261-48    C    0.46209997    0.76804998    0.65887962    -0.10630000
opls_145-49    C    0.96221993    0.12973008    0.77014961    -0.14090000
opls_145-50    C    0.96214995    0.09500000    0.69733964    -0.11090000
opls_261-51    C    0.96209997    0.26804998    0.15887962    -0.10630000
opls_145-52    C    0.46221993    0.62973008    0.27014961    -0.14090000
opls_145-53    C    0.46214995    0.59500000    0.19733964    -0.11090000
opls_261-54    C    0.03790003    0.73195002    0.15887962    -0.10630000
opls_145-55    C    0.53778007    0.37026992    0.27014961    -0.14090000
opls_145-56    C    0.53785005    0.40500000    0.19733964    -0.11090000
opls_261-57    C    0.53790003    0.23195002    0.65887962    -0.10630000
opls_145-58    C    0.03778007    0.87026992    0.77014961    -0.14090000
opls_145-59    C    0.03785005    0.90500000    0.69733964    -0.11090000
opls_261-60    C    0.73195002    0.46209997    0.40887962    -0.10630000
opls_145-61    C    0.37026992    0.96221993    0.52014961    -0.14090000
opls_145-62    C    0.40500000    0.96214995    0.44733964    -0.11090000
opls_261-63    C    0.23195002    0.96209997    0.90887962    -0.10630000
opls_145-64    C    0.87026992    0.46221993    0.02014961    -0.14090000
opls_145-65    C    0.90500000    0.46214995    0.94733964    -0.11090000
opls_261-66    C    0.76804998    0.03790003    0.90887962    -0.10630000
opls_145-67    C    0.12973008    0.53778007    0.02014961    -0.14090000
opls_145-68    C    0.09500000    0.53785005    0.94733964    -0.11090000
opls_261-69    C    0.26804998    0.53790003    0.40887962    -0.10630000
opls_145-70    C    0.62973008    0.03778007    0.52014961    -0.14090000
opls_145-71    C    0.59500000    0.03785005    0.44733964    -0.11090000
opls_261-72    C    0.03790003    0.76804998    0.09112038    -0.10630000
opls_145-73    C    0.53778007    0.12973008    0.97985039    -0.14090000
opls_145-74    C    0.53785005    0.09500000    0.05266036    -0.11090000
opls_261-75    C    0.53790003    0.26804998    0.59112038    -0.10630000
opls_145-76    C    0.03778007    0.62973008    0.47985039    -0.14090000
opls_145-77    C    0.03785005    0.59500000    0.55266036    -0.11090000
opls_261-78    C    0.46209997    0.73195002    0.59112038    -0.10630000
opls_145-79    C    0.96221993    0.37026992    0.47985039    -0.14090000
opls_145-80    C    0.96214995    0.40500000    0.55266036    -0.11090000
opls_261-81    C    0.96209997    0.23195002    0.09112038    -0.10620000
opls_145-82    C    0.46221993    0.87026992    0.97985039    -0.14090000
opls_145-83    C    0.46214995    0.90500000    0.05266036    -0.11090000
opls_261-84    C    0.76804998    0.46209997    0.34112038    -0.10630000
opls_145-85    C    0.12973008    0.96221993    0.22985039    -0.14090000
opls_145-86    C    0.09500000    0.96214995    0.30266036    -0.11090000
opls_261-87    C    0.26804998    0.96209997    0.84112038    -0.10630000
opls_145-88    C    0.62973008    0.46221993    0.72985039    -0.14090000
opls_145-89    C    0.59500000    0.46214995    0.80266036    -0.11090000
opls_261-90    C    0.73195002    0.03790003    0.84112038    -0.10630000
opls_145-91    C    0.37026992    0.53778007    0.72985039    -0.14090000
opls_145-92    C    0.40500000    0.53785005    0.80266036    -0.11090000
opls_261-93    C    0.23195002    0.53790003    0.34112038    -0.10630000
opls_145-94    C    0.87026992    0.03778007    0.22985039    -0.14090000
opls_145-95    C    0.90500000    0.03785005    0.30266036    -0.11090000
opls_145-96    C    0.00000000    0.64722993    0.44344970    0.25230000
opls_700-97    C    0.00000000    0.42234989    0.59285039    0.07350000
opls_261-98    C    0.00000000    0.32178007    0.26065004    0.27020000
opls_145-99    C    0.50000000    0.14722993    0.94344970    0.25230000
opls_700-100    C    0.50000000    0.92234989    0.09285039    0.07350000
opls_261-101    C    0.50000000    0.82178007    0.76065004    0.27020000
opls_145-102    C    0.50000000    0.85277007    0.94344970    0.25230000
opls_700-103    C    0.50000000    0.07765011    0.09285039    0.07350000
opls_261-104    C    0.50000000    0.17821993    0.76065004    0.27020000
opls_145-105    C    0.00000000    0.35277007    0.44344970    0.25230000
opls_700-106    C    0.00000000    0.57765011    0.59285039    0.07350000
opls_261-107    C    0.00000000    0.67821993    0.26065004    0.27020000
opls_145-108    C    0.35277007    0.50000000    0.69344970    0.25230000
opls_700-109    C    0.57765011    0.50000000    0.84285039    0.07360000
opls_261-110    C    0.67821993    0.50000000    0.51065004    0.27020000
opls_145-111    C    0.14722993    0.00000000    0.19344970    0.25230000
opls_700-112    C    0.92234989    0.00000000    0.34285039    0.07350000
opls_261-113    C    0.82178007    0.00000000    0.01065004    0.27020000
opls_145-114    C    0.50000000    0.64722993    0.30655030    0.25240000
opls_700-115    C    0.50000000    0.42234989    0.15714961    0.07350000
opls_261-116    C    0.50000000    0.32178007    0.48934996    0.27030000
opls_145-117    C    0.00000000    0.14722993    0.80655030    0.25230000
opls_700-118    C    0.00000000    0.92234989    0.65714961    0.07350000
opls_261-119    C    0.00000000    0.82178007    0.98934996    0.27030000
opls_145-120    C    0.00000000    0.85277007    0.80655030    0.25230000
opls_700-121    C    0.00000000    0.07765011    0.65714961    0.07350000
opls_261-122    C    0.00000000    0.17821993    0.98934996    0.27020000
opls_145-123    C    0.50000000    0.35277007    0.30655030    0.25240000
opls_700-124    C    0.50000000    0.57765011    0.15714961    0.07350000
opls_261-125    C    0.50000000    0.67821993    0.48934996    0.27020000
opls_145-126    C    0.14722993    0.50000000    0.05655030    0.25230000
opls_700-127    C    0.92234989    0.50000000    0.90714961    0.07350000
opls_261-128    C    0.82178007    0.50000000    0.23934996    0.27020000
opls_145-129    C    0.35277007    0.00000000    0.55655030    0.25230000
opls_700-130    C    0.57765011    0.00000000    0.40714961    0.07350000
opls_261-131    C    0.67821993    0.00000000    0.73934996    0.27020000
opls_145-132    C    0.85277007    0.50000000    0.05655030    0.25230000
opls_700-133    C    0.07765011    0.50000000    0.90714961    0.07350000
opls_261-134    C    0.17821993    0.50000000    0.23934996    0.27020000
opls_145-135    C    0.64722993    0.00000000    0.55655030    0.25240000
opls_700-136    C    0.42234989    0.00000000    0.40714961    0.07360000
opls_261-137    C    0.32178007    0.00000000    0.73934996    0.27020000
opls_145-138    C    0.85277007    0.00000000    0.19344970    0.25230000
opls_700-139    C    0.07765011    0.00000000    0.34285039    0.07360000
opls_261-140    C    0.17821993    0.00000000    0.01065004    0.27030000
opls_145-141    C    0.64722993    0.50000000    0.69344970    0.25230000
opls_700-142    C    0.42234989    0.50000000    0.84285039    0.07350000
opls_261-143    C    0.32178007    0.50000000    0.51065004    0.27030000
opls_701-144    C    0.50000000    0.46046985    0.07846002    0.01000000
opls_700-145    C    0.50000000    0.28616995    0.55692003    -0.05300000
opls_701-146    C    0.00000000    0.96046985    0.57846002    0.01000000
opls_700-147    C    0.00000000    0.78616995    0.05692003    -0.05300000
opls_701-148    C    0.00000000    0.03953015    0.57846002    0.01000000
opls_700-149    C    0.00000000    0.21383005    0.05692003    -0.05300000
opls_701-150    C    0.50000000    0.53953015    0.07846002    0.01000000
opls_700-151    C    0.50000000    0.71383005    0.55692003    -0.05300000
opls_701-152    C    0.53953015    0.00000000    0.32846002    0.01000000
opls_700-153    C    0.71383005    0.00000000    0.80692003    -0.05300000
opls_701-154    C    0.96046985    0.50000000    0.82846002    0.01000000
opls_700-155    C    0.78616995    0.50000000    0.30692003    -0.05300000
opls_701-156    C    0.00000000    0.46046985    0.67153998    0.01000000
opls_700-157    C    0.00000000    0.28616995    0.19307997    -0.05300000
opls_701-158    C    0.50000000    0.96046985    0.17153998    0.01000000
opls_700-159    C    0.50000000    0.78616995    0.69307997    -0.05300000
opls_701-160    C    0.50000000    0.03953015    0.17153998    0.01000000
opls_700-161    C    0.50000000    0.21383005    0.69307997    -0.05300000
opls_701-162    C    0.00000000    0.53953015    0.67153998    0.01000000
opls_700-163    C    0.00000000    0.71383005    0.19307997    -0.05300000
opls_701-164    C    0.96046985    0.00000000    0.42153998    0.01000000
opls_700-165    C    0.78616995    0.00000000    0.94307997    -0.05300000
opls_701-166    C    0.53953015    0.50000000    0.92153998    0.01000000
opls_700-167    C    0.71383005    0.50000000    0.44307997    -0.05300000
opls_701-168    C    0.46046985    0.50000000    0.92153998    0.01000000
opls_700-169    C    0.28616995    0.50000000    0.44307997    -0.05300000
opls_701-170    C    0.03953015    0.00000000    0.42153998    0.01000000
opls_700-171    C    0.21383005    0.00000000    0.94307997    -0.05300000
opls_701-172    C    0.03953015    0.50000000    0.82846002    0.01000000
opls_700-173    C    0.21383005    0.50000000    0.30692003    -0.05300000
opls_701-174    C    0.46046985    0.00000000    0.32846002    0.01000000
opls_700-175    C    0.28616995    0.00000000    0.80692003    -0.05300000
opls_261-176    C    0.53889003    0.46110997    0.00000000    -0.06660000
opls_261-177    C    0.03889003    0.96110997    0.50000000    -0.06660000
opls_261-178    C    0.96110997    0.03889003    0.50000000    -0.06650000
opls_261-179    C    0.46110997    0.53889003    0.00000000    -0.06660000
opls_261-180    C    0.53889003    0.03889003    0.25000000    -0.06660000
opls_261-181    C    0.03889003    0.53889003    0.75000000    -0.06660000
opls_261-182    C    0.96110997    0.46110997    0.75000000    -0.06660000
opls_261-183    C    0.46110997    0.96110997    0.25000000    -0.06660000
opls_261-184    C    0.46110997    0.03889003    0.25000000    -0.06660000
opls_261-185    C    0.96110997    0.53889003    0.75000000    -0.06660000
opls_261-186    C    0.03889003    0.46110997    0.75000000    -0.06660000
opls_261-187    C    0.53889003    0.96110997    0.25000000    -0.06660000
opls_261-188    C    0.46110997    0.46110997    0.00000000    -0.06660000
opls_261-189    C    0.96110997    0.96110997    0.50000000    -0.06660000
opls_261-190    C    0.03889003    0.03889003    0.50000000    -0.06660000
opls_261-191    C    0.53889003    0.53889003    0.00000000    -0.06660000
opls_261-192    C    0.50000000    0.50000000    0.15331986    -0.06680000
opls_261-193    C    0.00000000    0.00000000    0.65331986    -0.06680000
opls_261-194    C    0.50000000    0.00000000    0.40331986    -0.06680000
opls_261-195    C    0.00000000    0.50000000    0.90331986    -0.06680000
opls_261-196    C    0.00000000    0.50000000    0.59668014    -0.06680000
opls_261-197    C    0.50000000    0.00000000    0.09668014    -0.06680000
opls_261-198    C    0.00000000    0.00000000    0.34668014    -0.06680000
opls_261-199    C    0.50000000    0.50000000    0.84668014    -0.06670000
opls_146-200    H    0.06718994    0.35703999    0.45155976    0.13260000
opls_146-201    H    0.06765011    0.41819994    0.57739983    0.13980000
opls_146-202    H    0.56718994    0.85703999    0.95155976    0.13260000
opls_146-203    H    0.56765011    0.91819994    0.07739983    0.13970000
opls_146-204    H    0.43281006    0.14296001    0.95155976    0.13260000
opls_146-205    H    0.43234989    0.08180006    0.07739983    0.13970000
opls_146-206    H    0.93281006    0.64296001    0.45155976    0.13260000
opls_146-207    H    0.93234989    0.58180006    0.57739983    0.13970000
opls_146-208    H    0.64296001    0.56718994    0.70155976    0.13260000
opls_146-209    H    0.58180006    0.56765011    0.82739983    0.13970000
opls_146-210    H    0.14296001    0.06718994    0.20155976    0.13260000
opls_146-211    H    0.08180006    0.06765011    0.32739983    0.13970000
opls_146-212    H    0.85703999    0.93281006    0.20155976    0.13260000
opls_146-213    H    0.91819994    0.93234989    0.32739983    0.13970000
opls_146-214    H    0.35703999    0.43281006    0.70155976    0.13260000
opls_146-215    H    0.41819994    0.43234989    0.82739983    0.13970000
opls_146-216    H    0.43281006    0.35703999    0.29844024    0.13260000
opls_146-217    H    0.43234989    0.41819994    0.17260017    0.13970000
opls_146-218    H    0.93281006    0.85703999    0.79844024    0.13260000
opls_146-219    H    0.93234989    0.91819994    0.67260017    0.13970000
opls_146-220    H    0.06718994    0.14296001    0.79844024    0.13270000
opls_146-221    H    0.06765011    0.08180006    0.67260017    0.13970000
opls_146-222    H    0.56718994    0.64296001    0.29844024    0.13260000
opls_146-223    H    0.56765011    0.58180006    0.17260017    0.13970000
opls_146-224    H    0.85703999    0.56718994    0.04844024    0.13260000
opls_146-225    H    0.91819994    0.56765011    0.92260017    0.13970000
opls_146-226    H    0.35703999    0.06718994    0.54844024    0.13260000
opls_146-227    H    0.41819994    0.06765011    0.42260017    0.13970000
opls_146-228    H    0.64296001    0.93281006    0.54844024    0.13260000
opls_146-229    H    0.58180006    0.93234989    0.42260017    0.13970000
opls_146-230    H    0.14296001    0.43281006    0.04844024    0.13260000
opls_146-231    H    0.08180006    0.43234989    0.92260017    0.13970000
opls_146-232    H    0.93281006    0.14296001    0.79844024    0.13260000
opls_146-233    H    0.93234989    0.08180006    0.67260017    0.13970000
opls_146-234    H    0.43281006    0.64296001    0.29844024    0.13260000
opls_146-235    H    0.43234989    0.58180006    0.17260017    0.13970000
opls_146-236    H    0.56718994    0.35703999    0.29844024    0.13270000
opls_146-237    H    0.56765011    0.41819994    0.17260017    0.13990000
opls_146-238    H    0.06718994    0.85703999    0.79844024    0.13260000
opls_146-239    H    0.06765011    0.91819994    0.67260017    0.13970000
opls_146-240    H    0.35703999    0.93281006    0.54844024    0.13270000
opls_146-241    H    0.41819994    0.93234989    0.42260017    0.13970000
opls_146-242    H    0.85703999    0.43281006    0.04844024    0.13270000
opls_146-243    H    0.91819994    0.43234989    0.92260017    0.13970000
opls_146-244    H    0.14296001    0.56718994    0.04844024    0.13260000
opls_146-245    H    0.08180006    0.56765011    0.92260017    0.13970000
opls_146-246    H    0.64296001    0.06718994    0.54844024    0.13260000
opls_146-247    H    0.58180006    0.06765011    0.42260017    0.13970000
opls_146-248    H    0.56718994    0.14296001    0.95155976    0.13260000
opls_146-249    H    0.56765011    0.08180006    0.07739983    0.13970000
opls_146-250    H    0.06718994    0.64296001    0.45155976    0.13260000
opls_146-251    H    0.06765011    0.58180006    0.57739983    0.13980000
opls_146-252    H    0.93281006    0.35703999    0.45155976    0.13260000
opls_146-253    H    0.93234989    0.41819994    0.57739983    0.13970000
opls_146-254    H    0.43281006    0.85703999    0.95155976    0.13260000
opls_146-255    H    0.43234989    0.91819994    0.07739983    0.13970000
opls_146-256    H    0.14296001    0.93281006    0.20155976    0.13260000
opls_146-257    H    0.08180006    0.93234989    0.32739983    0.13970000
opls_146-258    H    0.64296001    0.43281006    0.70155976    0.13260000
opls_146-259    H    0.58180006    0.43234989    0.82739983    0.13970000
opls_146-260    H    0.35703999    0.56718994    0.70155976    0.13260000
opls_146-261    H    0.41819994    0.56765011    0.82739983    0.13980000
opls_146-262    H    0.85703999    0.06718994    0.20155976    0.13260000
opls_146-263    H    0.91819994    0.06765011    0.32739983    0.13970000
opls_750-264    N    0.00000000    0.31842987    0.37620034    -0.28160000
opls_750-265    N    0.50000000    0.81842987    0.87620034    -0.28150000
opls_750-266    N    0.50000000    0.18157013    0.87620034    -0.28160000
opls_750-267    N    0.00000000    0.68157013    0.37620034    -0.28160000
opls_750-268    N    0.68157013    0.50000000    0.62620034    -0.28160000
opls_750-269    N    0.81842987    0.00000000    0.12620034    -0.28160000
opls_750-270    N    0.50000000    0.31842987    0.37379966    -0.28150000
opls_750-271    N    0.00000000    0.81842987    0.87379966    -0.28160000
opls_750-272    N    0.00000000    0.18157013    0.87379966    -0.28150000
opls_750-273    N    0.50000000    0.68157013    0.37379966    -0.28160000
opls_750-274    N    0.81842987    0.50000000    0.12379966    -0.28160000
opls_750-275    N    0.68157013    0.00000000    0.62379966    -0.28150000
opls_750-276    N    0.18157013    0.50000000    0.12379966    -0.28160000
opls_750-277    N    0.31842987    0.00000000    0.62379966    -0.28150000
opls_750-278    N    0.18157013    0.00000000    0.12620034    -0.28160000
opls_750-279    N    0.31842987    0.50000000    0.62620034    -0.28160000
