#======================================================================
# Crystal Data Generated By AuToFF
#----------------------------------------------------------------------

data_AuToFF_phase_1

_cell_length_a                         21.0300
_cell_length_b                         21.0300
_cell_length_c                         3.3200
_cell_angle_alpha                      90.00
_cell_angle_beta                       90.00
_cell_angle_gamma                      120.00
_symmetry_space_group_name_H-M_alt     'P 1'
_symmetry_space_group_IT_number        1

loop_
_space_group_symop_operation_xyz
   'x, y, z'

loop_
   _atom_site_label
   _atom_site_type_symbol
   _atom_site_fract_x
   _atom_site_fract_y
   _atom_site_fract_z
   _atom_site_charge
opls_280-0    C    0.30695013    0.59145994    0.50000000    0.22660000
opls_145-1    C    0.38113002    0.64062998    0.50000000    -0.11060000
opls_142-2    C    0.42797001    0.61784015    0.50000000    0.09220000
opls_145-3    C    0.45481003    0.52703993    0.50000000    0.14540000
opls_145-4    C    0.42936007    0.45590037    0.50000000    -0.22650000
opls_145-5    C    0.52674015    0.57065006    0.50000000    -0.22650000
opls_280-6    C    0.40854009    0.71549007    0.50000000    0.22660000
opls_145-7    C    0.35937000    0.74050035    0.50000000    -0.11060000
opls_142-8    C    0.38216008    0.81012996    0.50000000    0.09220000
opls_145-9    C    0.47296012    0.92776998    0.50000000    0.14540000
opls_145-10    C    0.54409995    0.97346000    0.50000000    -0.22650000
opls_145-11    C    0.42934984    0.95609007    0.50000000    -0.22650000
opls_280-12    C    0.28450978    0.69305000    0.50000000    0.22660000
opls_145-13    C    0.25950025    0.61887022    0.50000000    -0.11060000
opls_142-14    C    0.18986991    0.57202988    0.50000000    0.09220000
opls_145-15    C    0.07222985    0.54519009    0.50000000    0.14540000
opls_145-16    C    0.02654025    0.57064018    0.50000000    -0.22650000
opls_145-17    C    0.04391001    0.47325986    0.50000000    -0.22650000
opls_280-18    C    0.69304987    0.40854006    0.50000000    0.22660000
opls_145-19    C    0.61886998    0.35937002    0.50000000    -0.11060000
opls_142-20    C    0.57202999    0.38215985    0.50000000    0.09220000
opls_145-21    C    0.54518997    0.47296007    0.50000000    0.14540000
opls_145-22    C    0.57064020    0.54410018    0.50000000    -0.22650000
opls_145-23    C    0.47325985    0.42934994    0.50000000    -0.22650000
opls_280-24    C    0.59145991    0.28450993    0.50000000    0.22660000
opls_145-25    C    0.64063027    0.25950020    0.50000000    -0.11060000
opls_142-26    C    0.61783992    0.18987004    0.50000000    0.09220000
opls_145-27    C    0.52703988    0.07223002    0.50000000    0.14540000
opls_145-28    C    0.45590005    0.02654000    0.50000000    -0.22650000
opls_145-29    C    0.57065016    0.04390993    0.50000000    -0.22650000
opls_280-30    C    0.71549022    0.30695000    0.50000000    0.22660000
opls_145-31    C    0.74050002    0.38113033    0.50000000    -0.11060000
opls_142-32    C    0.81013009    0.42797012    0.50000000    0.09220000
opls_145-33    C    0.92777015    0.45480991    0.50000000    0.14540000
opls_145-34    C    0.97346002    0.42936037    0.50000000    -0.22650000
opls_145-35    C    0.95608999    0.52674014    0.50000000    -0.22650000
opls_281-36    O    0.28355018    0.52708990    0.50000000    -0.38820000
opls_281-37    O    0.47291011    0.75646026    0.50000000    -0.38830000
opls_281-38    O    0.24353999    0.71645040    0.50000000    -0.38830000
opls_281-39    O    0.71644982    0.47291010    0.50000000    -0.38830000
opls_281-40    O    0.52709016    0.24354029    0.50000000    -0.38830000
opls_281-41    O    0.75646029    0.28355015    0.50000000    -0.38810000
opls_238-42    N    0.41129012    0.55211994    0.50000000    -0.32330000
opls_238-43    N    0.44788003    0.85917043    0.50000000    -0.32330000
opls_238-44    N    0.14083012    0.58871018    0.50000000    -0.32320000
opls_238-45    N    0.58870988    0.44788006    0.50000000    -0.32330000
opls_238-46    N    0.55212024    0.14083012    0.50000000    -0.32320000
opls_238-47    N    0.85916988    0.41128982    0.50000000    -0.32330000
opls_146-48    H    0.37352991    0.42043024    0.50000000    0.21990000
opls_144-49    H    0.48370016    0.65596999    0.50000000    0.10760000
opls_146-50    H    0.54892994    0.62684990    0.50000000    0.22000000
opls_910-51    H    0.35757018    0.51743994    0.50000000    0.26350000
opls_146-52    H    0.57957016    0.95310037    0.50000000    0.21990000
opls_144-53    H    0.34402998    0.82772995    0.50000000    0.10760000
opls_146-54    H    0.37315008    0.92208048    0.50000000    0.21990000
opls_910-55    H    0.48256012    0.84013022    0.50000000    0.26350000
opls_146-56    H    0.04689973    0.62646994    0.50000000    0.21990000
opls_144-57    H    0.17226986    0.51630006    0.50000000    0.10760000
opls_146-58    H    0.07792025    0.45107017    0.50000000    0.21990000
opls_910-59    H    0.15986998    0.64243040    0.50000000    0.26350000
opls_146-60    H    0.62647036    0.57957031    0.50000000    0.21990000
opls_144-61    H    0.51629984    0.34403001    0.50000000    0.10760000
opls_146-62    H    0.45107006    0.37315010    0.50000000    0.21990000
opls_910-63    H    0.64242982    0.48256006    0.50000000    0.26350000
opls_146-64    H    0.42043012    0.04690018    0.50000000    0.21990000
opls_144-65    H    0.65597002    0.17227005    0.50000000    0.10760000
opls_146-66    H    0.62685019    0.07792007    0.50000000    0.21990000
opls_910-67    H    0.51743988    0.15986978    0.50000000    0.26350000
opls_146-68    H    0.95310027    0.37353006    0.50000000    0.21990000
opls_144-69    H    0.82773014    0.48369994    0.50000000    0.10760000
opls_146-70    H    0.92208002    0.54893038    0.50000000    0.21990000
opls_910-71    H    0.84013030    0.35757015    0.50000000    0.26350000
