#======================================================================
# Crystal Data Generated By AuToFF
#----------------------------------------------------------------------

data_AuToFF_phase_1

_cell_length_a                         28.5410
_cell_length_b                         28.5410
_cell_length_c                         3.4380
_cell_angle_alpha                      90.00
_cell_angle_beta                       90.00
_cell_angle_gamma                      120.00
_symmetry_space_group_name_H-M_alt     'P 1'
_symmetry_space_group_IT_number        1

loop_
_space_group_symop_operation_xyz
   'x, y, z'

loop_
   _atom_site_label
   _atom_site_type_symbol
   _atom_site_fract_x
   _atom_site_fract_y
   _atom_site_fract_z
   _atom_site_charge
opls_520-0    N    0.29832004    0.61331994    0.00000000    -0.32910000
opls_750-1    N    0.48716995    0.51474983    0.00000000    -0.13060000
opls_520-2    N    0.38668005    0.68501001    0.00000000    -0.32910000
opls_750-3    N    0.48525015    0.97243016    0.00000000    -0.13060000
opls_520-4    N    0.31500006    0.70168016    0.00000000    -0.32910000
opls_750-5    N    0.02756989    0.51283012    0.00000000    -0.12440000
opls_520-6    N    0.70167996    0.38668006    0.00000000    -0.32910000
opls_750-7    N    0.51283005    0.48525017    0.00000000    -0.13060000
opls_520-8    N    0.61332010    0.31500010    0.00000000    -0.32910000
opls_750-9    N    0.51474985    0.02756984    0.00000000    -0.13060000
opls_520-10    N    0.68499994    0.29831984    0.00000000    -0.32910000
opls_750-11    N    0.97243011    0.48716988    0.00000000    -0.12440000
opls_700-12    C    0.37129026    0.59428018    0.00000000    0.04120000
opls_523-13    C    0.42707018    0.61556008    0.00000000    -0.19390000
opls_145-14    C    0.44736004    0.58141992    0.00000000    -0.17160000
opls_700-15    C    0.41223998    0.52521015    0.00000000    0.06100000
opls_145-16    C    0.35629020    0.50328010    0.00000000    -0.13420000
opls_523-17    C    0.33560009    0.53808012    0.00000000    -0.11650000
opls_531-18    C    0.35150998    0.63159990    0.00000000    0.37460000
opls_142-19    C    0.56448985    0.50911004    0.00000000    0.03060000
opls_700-20    C    0.40571994    0.77701992    0.00000000    0.04120000
opls_523-21    C    0.38444022    0.81152014    0.00000000    -0.19390000
opls_145-22    C    0.41858021    0.86594008    0.00000000    -0.17160000
opls_700-23    C    0.47478997    0.88702011    0.00000000    0.06100000
opls_145-24    C    0.49670993    0.85300011    0.00000000    -0.13420000
opls_523-25    C    0.46192011    0.79752019    0.00000000    -0.11440000
opls_531-26    C    0.36840002    0.71990996    0.00000000    0.37960000
opls_142-27    C    0.49089011    0.05539011    0.00000000    0.03060000
opls_700-28    C    0.22298014    0.62871001    0.00000000    0.04120000
opls_523-29    C    0.18847994    0.57292990    0.00000000    -0.19390000
opls_145-30    C    0.13406009    0.55264000    0.00000000    -0.17160000
opls_700-31    C    0.11297991    0.58776004    0.00000000    0.06110000
opls_145-32    C    0.14699992    0.64371008    0.00000000    -0.13420000
opls_523-33    C    0.20248000    0.66440010    0.00000000    -0.11020000
opls_531-34    C    0.28009000    0.64849014    0.00000000    0.37460000
opls_142-35    C    0.94461003    0.43550997    0.00000000    0.03060000
opls_700-36    C    0.62870989    0.40572993    0.00000000    0.04120000
opls_523-37    C    0.57292982    0.38443992    0.00000000    -0.19390000
opls_145-38    C    0.55263996    0.41858008    0.00000000    -0.17160000
opls_700-39    C    0.58776002    0.47478985    0.00000000    0.06100000
opls_145-40    C    0.64370980    0.49671990    0.00000000    -0.13420000
opls_523-41    C    0.66439991    0.46191988    0.00000000    -0.11440000
opls_531-42    C    0.64849002    0.36840010    0.00000000    0.37480000
opls_142-43    C    0.43551015    0.49088996    0.00000000    0.03060000
opls_700-44    C    0.59428006    0.22298008    0.00000000    0.04120000
opls_523-45    C    0.61555978    0.18847986    0.00000000    -0.19390000
opls_145-46    C    0.58141979    0.13405992    0.00000000    -0.17160000
opls_700-47    C    0.52521003    0.11297989    0.00000000    0.05750000
opls_145-48    C    0.50327991    0.14699989    0.00000000    -0.13410000
opls_523-49    C    0.53807989    0.20247981    0.00000000    -0.11440000
opls_531-50    C    0.63159998    0.28009004    0.00000000    0.37470000
opls_142-51    C    0.50910989    0.94460989    0.00000000    0.03060000
opls_700-52    C    0.77701986    0.37128999    0.00000000    0.04120000
opls_523-53    C    0.81152006    0.42707010    0.00000000    -0.19390000
opls_145-54    C    0.86593991    0.44736000    0.00000000    -0.17160000
opls_700-55    C    0.88702009    0.41223996    0.00000000    0.06100000
opls_145-56    C    0.85300008    0.35628992    0.00000000    -0.13420000
opls_523-57    C    0.79752000    0.33559990    0.00000000    -0.11030000
opls_531-58    C    0.71991000    0.35150986    0.00000000    0.37470000
opls_142-59    C    0.05538997    0.56449003    0.00000000    0.03060000
opls_526-60    H    0.45525991    0.65871014    0.00000000    0.11220000
opls_526-61    H    0.29218982    0.52147996    0.00000000    0.11490000
opls_146-62    H    0.49095999    0.59940009    0.00000000    0.11460000
opls_146-63    H    0.32915993    0.45993018    0.00000000    0.11490000
opls_144-64    H    0.58897004    0.55280992    0.00000000    0.10570000
opls_526-65    H    0.34128997    0.79655002    0.00000000    0.11220000
opls_526-66    H    0.47851999    0.77071015    0.00000000    0.11490000
opls_146-67    H    0.40060001    0.89155986    0.00000000    0.11460000
opls_146-68    H    0.54007000    0.86923009    0.00000000    0.11650000
opls_144-69    H    0.44719015    0.03616020    0.00000000    0.10570000
opls_526-70    H    0.20344977    0.54473984    0.00000000    0.11190000
opls_526-71    H    0.22928983    0.70780990    0.00000000    0.11490000
opls_146-72    H    0.10844000    0.50904005    0.00000000    0.11460000
opls_146-73    H    0.13076992    0.67084014    0.00000000    0.11650000
opls_144-74    H    0.96383980    0.41102988    0.00000000    0.10550000
opls_526-75    H    0.54474009    0.34128986    0.00000000    0.11220000
opls_526-76    H    0.70781018    0.47852004    0.00000000    0.11490000
opls_146-77    H    0.50904001    0.40059991    0.00000000    0.11470000
opls_146-78    H    0.67084007    0.54006982    0.00000000    0.11490000
opls_144-79    H    0.41102996    0.44719008    0.00000000    0.10570000
opls_526-80    H    0.65871003    0.20344998    0.00000000    0.11220000
opls_526-81    H    0.52148001    0.22928985    0.00000000    0.11490000
opls_146-82    H    0.59939999    0.10844014    0.00000000    0.11460000
opls_146-83    H    0.45993000    0.13076991    0.00000000    0.11490000
opls_144-84    H    0.55281005    0.96384020    0.00000000    0.10570000
opls_526-85    H    0.79655023    0.45526016    0.00000000    0.11190000
opls_526-86    H    0.77071017    0.29219010    0.00000000    0.11490000
opls_146-87    H    0.89156000    0.49095995    0.00000000    0.11460000
opls_146-88    H    0.86923008    0.32915986    0.00000000    0.11650000
opls_144-89    H    0.03616020    0.58897012    0.00000000    0.10550000
