#======================================================================
# Crystal Data Generated By AuToFF
#----------------------------------------------------------------------

data_AuToFF_phase_1

_cell_length_a                         22.8474
_cell_length_b                         22.8474
_cell_length_c                         3.5019
_cell_angle_alpha                      90.00
_cell_angle_beta                       90.00
_cell_angle_gamma                      120.00
_symmetry_space_group_name_H-M_alt     'P 1'
_symmetry_space_group_IT_number        1

loop_
_space_group_symop_operation_xyz
   'x, y, z'

loop_
   _atom_site_label
   _atom_site_type_symbol
   _atom_site_fract_x
   _atom_site_fract_y
   _atom_site_fract_z
   _atom_site_charge
opls_700-0    C    0.74052002    0.37025982    0.50000000    0.04460000
opls_700-1    C    0.62973980    0.37025982    0.50000000    0.04470000
opls_700-2    C    0.62973993    0.25947986    0.50000000    0.04470000
opls_145-3    C    0.70146016    0.29853996    0.50000000    -0.16040000
opls_145-4    C    0.70146028    0.40293019    0.50000000    -0.16040000
opls_145-5    C    0.59707980    0.29853996    0.50000000    -0.16040000
opls_700-6    C    0.25947998    0.62974018    0.50000000    0.04460000
opls_700-7    C    0.37026020    0.62974018    0.50000000    0.04470000
opls_700-8    C    0.37026007    0.74052014    0.50000000    0.04460000
opls_145-9    C    0.29853984    0.70146004    0.50000000    -0.16030000
opls_145-10    C    0.29853972    0.59706981    0.50000000    -0.16040000
opls_145-11    C    0.40292983    0.70146004    0.50000000    -0.16040000
opls_700-12    C    0.18634977    0.59317977    0.50000000    0.04640000
opls_700-13    C    0.40681993    0.59317977    0.50000000    0.04640000
opls_700-14    C    0.40682022    0.81365006    0.50000000    0.04640000
opls_145-15    C    0.14671974    0.62538972    0.50000000    -0.21630000
opls_145-16    C    0.37461014    0.52133002    0.50000000    -0.21630000
opls_145-17    C    0.47866986    0.85327975    0.50000000    -0.21660000
opls_145-18    C    0.37460988    0.85327975    0.50000000    -0.21630000
opls_145-19    C    0.47866998    0.62538972    0.50000000    -0.21630000
opls_145-20    C    0.14671988    0.52133002    0.50000000    -0.21630000
opls_145-21    C    0.07557979    0.58985982    0.50000000    -0.21630000
opls_145-22    C    0.41013974    0.48571976    0.50000000    -0.21630000
opls_145-23    C    0.51428002    0.92443003    0.50000000    -0.21630000
opls_145-24    C    0.41013994    0.92443003    0.50000000    -0.21630000
opls_145-25    C    0.51428003    0.58985982    0.50000000    -0.21630000
opls_145-26    C    0.07558001    0.48571976    0.50000000    -0.21630000
opls_700-27    C    0.03636987    0.51818999    0.50000000    0.04990000
opls_700-28    C    0.48181005    0.51818999    0.50000000    0.05250000
opls_700-29    C    0.48181025    0.96363012    0.50000000    0.05170000
opls_700-30    C    0.96363013    0.48181001    0.50000000    0.05170000
opls_700-31    C    0.51818995    0.48181001    0.50000000    0.05250000
opls_700-32    C    0.51818975    0.03636988    0.50000000    0.04990000
opls_145-33    C    0.92442980    0.51427974    0.50000000    -0.21630000
opls_145-34    C    0.48571997    0.41014018    0.50000000    -0.21630000
opls_145-35    C    0.58985986    0.07558008    0.50000000    -0.21620000
opls_145-36    C    0.48572022    0.07558008    0.50000000    -0.21630000
opls_145-37    C    0.58986000    0.51427974    0.50000000    -0.21620000
opls_145-38    C    0.92443028    0.41014018    0.50000000    -0.21620000
opls_145-39    C    0.85328012    0.47866998    0.50000000    -0.21660000
opls_145-40    C    0.52132976    0.37460977    0.50000000    -0.21630000
opls_145-41    C    0.62538986    0.14671975    0.50000000    -0.21630000
opls_145-42    C    0.52132988    0.14671975    0.50000000    -0.21630000
opls_145-43    C    0.62538986    0.47866998    0.50000000    -0.21620000
opls_145-44    C    0.85328001    0.37460977    0.50000000    -0.21610000
opls_700-45    C    0.81364998    0.40681972    0.50000000    0.04640000
opls_700-46    C    0.59317981    0.40681972    0.50000000    0.04640000
opls_700-47    C    0.59317978    0.18634994    0.50000000    0.04650000
opls_146-48    H    0.72675969    0.27323979    0.50000000    0.17600000
opls_146-49    H    0.72675996    0.45351991    0.50000000    0.17600000
opls_146-50    H    0.54648010    0.27323979    0.50000000    0.17610000
opls_146-51    H    0.27324005    0.72675970    0.50000000    0.17600000
opls_146-52    H    0.27324004    0.54648009    0.50000000    0.17600000
opls_146-53    H    0.45351965    0.72675970    0.50000000    0.17610000
opls_146-54    H    0.16796980    0.67650001    0.50000000    0.17670000
opls_146-55    H    0.32350017    0.49147016    0.50000000    0.17670000
opls_146-56    H    0.50853004    0.83202983    0.50000000    0.17670000
opls_146-57    H    0.32349979    0.83202983    0.50000000    0.17670000
opls_146-58    H    0.50853021    0.67650001    0.50000000    0.17680000
opls_146-59    H    0.16797000    0.49147016    0.50000000    0.17670000
opls_146-60    H    0.05367005    0.61919002    0.50000000    0.17690000
opls_146-61    H    0.38082015    0.43448010    0.50000000    0.17690000
opls_146-62    H    0.56551987    0.94632988    0.50000000    0.17690000
opls_146-63    H    0.38082008    0.94632988    0.50000000    0.17680000
opls_146-64    H    0.56552017    0.61917991    0.50000000    0.17690000
opls_146-65    H    0.05367001    0.43448010    0.50000000    0.17690000
opls_146-66    H    0.94632999    0.56551990    0.50000000    0.17690000
opls_146-67    H    0.43448990    0.38082009    0.50000000    0.17660000
opls_146-68    H    0.61918999    0.05367012    0.50000000    0.17690000
opls_146-69    H    0.43449020    0.05367012    0.50000000    0.17660000
opls_146-70    H    0.61918992    0.56551990    0.50000000    0.17700000
opls_146-71    H    0.94633019    0.38082009    0.50000000    0.17670000
opls_146-72    H    0.83203000    0.50852984    0.50000000    0.17680000
opls_146-73    H    0.49146979    0.32349999    0.50000000    0.17670000
opls_146-74    H    0.67650021    0.16797017    0.50000000    0.17670000
opls_146-75    H    0.49146996    0.16797017    0.50000000    0.17680000
opls_146-76    H    0.67649983    0.50852984    0.50000000    0.17670000
opls_146-77    H    0.83203020    0.32349999    0.50000000    0.17670000
