#======================================================================
# Crystal Data Generated By AuToFF
#----------------------------------------------------------------------

data_AuToFF_phase_1

_cell_length_a                         34.7756
_cell_length_b                         34.1644
_cell_length_c                         6.5787
_cell_angle_alpha                      90.00
_cell_angle_beta                       90.00
_cell_angle_gamma                      90.00
_symmetry_space_group_name_H-M_alt     'P 1'
_symmetry_space_group_IT_number        1

loop_
_space_group_symop_operation_xyz
   'x, y, z'

loop_
   _atom_site_label
   _atom_site_type_symbol
   _atom_site_fract_x
   _atom_site_fract_y
   _atom_site_fract_z
   _atom_site_charge
opls_700-0    C    0.46469996    0.95740010    0.98619940    0.03190000
opls_145-1    C    0.43019991    0.02149987    0.98270023    -0.10280000
opls_700-2    C    0.46499988    0.08400001    0.98790035    0.03420000
opls_700-3    C    0.42930014    0.10730000    0.00399927    0.06940000
opls_145-4    C    0.40849993    0.10760002    0.18650037    -0.11960000
opls_145-5    C    0.37539999    0.13040007    0.20480034    -0.12990000
opls_700-6    C    0.36249986    0.15329993    0.04090018    0.06600000
opls_145-7    C    0.38340014    0.15290009    0.85769985    -0.13250000
opls_145-8    C    0.41669993    0.13019986    0.83989998    -0.13250000
opls_142-9    C    0.32769988    0.17749997    0.06569991    0.06820000
opls_145-10    C    0.78189995    0.27549994    0.92579993    0.18590000
opls_145-11    C    0.76589994    0.26249985    0.74299938    -0.16580000
opls_145-12    C    0.73410006    0.23750015    0.11009926    -0.17320000
opls_700-13    C    0.96469996    0.45740010    0.98619940    0.03190000
opls_145-14    C    0.93019991    0.52149987    0.98270023    -0.10280000
opls_700-15    C    0.96499988    0.58400001    0.98790035    0.03420000
opls_700-16    C    0.92930014    0.60730000    0.00399927    0.06940000
opls_145-17    C    0.90849993    0.60760002    0.18650037    -0.11960000
opls_145-18    C    0.87539999    0.63040007    0.20480034    -0.12990000
opls_700-19    C    0.86249986    0.65329993    0.04090018    0.06600000
opls_145-20    C    0.88340014    0.65290009    0.85769985    -0.13250000
opls_145-21    C    0.91669993    0.63019986    0.83989998    -0.13250000
opls_142-22    C    0.82769988    0.67749997    0.06569991    0.06820000
opls_145-23    C    0.28189995    0.77549994    0.92579993    0.18590000
opls_145-24    C    0.26589994    0.76249985    0.74299938    -0.16580000
opls_145-25    C    0.23410006    0.73750015    0.11009926    -0.17320000
opls_700-26    C    0.53530004    0.04259990    0.98619940    0.03190000
opls_145-27    C    0.56980009    0.97850013    0.98270023    -0.10280000
opls_700-28    C    0.53500012    0.91599999    0.98790035    0.03420000
opls_700-29    C    0.57069986    0.89270000    0.00399927    0.06940000
opls_145-30    C    0.59150007    0.89239998    0.18650037    -0.11960000
opls_145-31    C    0.62460001    0.86959993    0.20480034    -0.12990000
opls_700-32    C    0.63749986    0.84670007    0.04090018    0.06600000
opls_145-33    C    0.61659986    0.84709991    0.85769985    -0.13250000
opls_145-34    C    0.58330007    0.86980014    0.83989998    -0.13250000
opls_142-35    C    0.67230012    0.82250003    0.06569991    0.06820000
opls_145-36    C    0.21810005    0.72450006    0.92579993    0.18590000
opls_145-37    C    0.23410006    0.73750015    0.74299938    -0.16580000
opls_145-38    C    0.26589994    0.76249985    0.11009926    -0.17320000
opls_700-39    C    0.03530004    0.54259990    0.98619940    0.03190000
opls_145-40    C    0.06980009    0.47850013    0.98270023    -0.10280000
opls_700-41    C    0.03500012    0.41599999    0.98790035    0.03420000
opls_700-42    C    0.07069986    0.39270000    0.00399927    0.06940000
opls_145-43    C    0.09150007    0.39239998    0.18650037    -0.11960000
opls_145-44    C    0.12460001    0.36959993    0.20480034    -0.12990000
opls_700-45    C    0.13750014    0.34670007    0.04090018    0.06600000
opls_145-46    C    0.11659986    0.34709991    0.85769985    -0.13250000
opls_145-47    C    0.08330007    0.36980014    0.83989998    -0.13250000
opls_142-48    C    0.17230012    0.32250003    0.06569991    0.06820000
opls_145-49    C    0.71810005    0.22450006    0.92579993    0.18590000
opls_145-50    C    0.73410006    0.23750015    0.74299938    -0.16580000
opls_145-51    C    0.76589994    0.26249985    0.11009926    -0.17320000
opls_700-52    C    0.46469996    0.04259990    0.98619940    0.03190000
opls_145-53    C    0.43019991    0.97850013    0.98270023    -0.10280000
opls_700-54    C    0.46499988    0.91599999    0.98790035    0.03420000
opls_700-55    C    0.42930014    0.89270000    0.00399927    0.06940000
opls_145-56    C    0.40849993    0.89239998    0.18650037    -0.11960000
opls_145-57    C    0.37539999    0.86959993    0.20480034    -0.12990000
opls_700-58    C    0.36249986    0.84670007    0.04090018    0.06600000
opls_145-59    C    0.38340014    0.84709991    0.85769985    -0.13250000
opls_145-60    C    0.41669993    0.86980014    0.83989998    -0.13250000
opls_142-61    C    0.32769988    0.82250003    0.06569991    0.06820000
opls_145-62    C    0.78189995    0.72450006    0.92579993    0.18590000
opls_145-63    C    0.76589994    0.73750015    0.74299938    -0.16580000
opls_145-64    C    0.73410006    0.76249985    0.11009926    -0.17320000
opls_700-65    C    0.96469996    0.54259990    0.98619940    0.03190000
opls_145-66    C    0.93019991    0.47850013    0.98270023    -0.10280000
opls_700-67    C    0.96499988    0.41599999    0.98790035    0.03420000
opls_700-68    C    0.92930014    0.39270000    0.00399927    0.06940000
opls_145-69    C    0.90849993    0.39239998    0.18650037    -0.11960000
opls_145-70    C    0.87539999    0.36959993    0.20480034    -0.12990000
opls_700-71    C    0.86249986    0.34670007    0.04090018    0.06600000
opls_145-72    C    0.88340014    0.34709991    0.85769985    -0.13250000
opls_145-73    C    0.91669993    0.36980014    0.83989998    -0.13250000
opls_142-74    C    0.82769988    0.32250003    0.06569991    0.06820000
opls_145-75    C    0.28189995    0.22450006    0.92579993    0.18590000
opls_145-76    C    0.26589994    0.23750015    0.74299938    -0.16580000
opls_145-77    C    0.23410006    0.26249985    0.11009926    -0.17320000
opls_700-78    C    0.53530004    0.95740010    0.98619940    0.03190000
opls_145-79    C    0.56980009    0.02149987    0.98270023    -0.10280000
opls_700-80    C    0.53500012    0.08400001    0.98790035    0.03420000
opls_700-81    C    0.57069986    0.10730000    0.00399927    0.06940000
opls_145-82    C    0.59150007    0.10760002    0.18650037    -0.11960000
opls_145-83    C    0.62460001    0.13040007    0.20480034    -0.12990000
opls_700-84    C    0.63749986    0.15329993    0.04090018    0.06600000
opls_145-85    C    0.61659986    0.15290009    0.85769985    -0.13250000
opls_145-86    C    0.58330007    0.13019986    0.83989998    -0.13250000
opls_142-87    C    0.67230012    0.17749997    0.06569991    0.06820000
opls_145-88    C    0.21810005    0.27549994    0.92579993    0.18590000
opls_145-89    C    0.23410006    0.26249985    0.74299938    -0.16580000
opls_145-90    C    0.26589994    0.23750015    0.11009926    -0.17320000
opls_700-91    C    0.03530004    0.45740010    0.98619940    0.03190000
opls_145-92    C    0.06980009    0.52149987    0.98270023    -0.10280000
opls_700-93    C    0.03500012    0.58400001    0.98790035    0.03420000
opls_700-94    C    0.07069986    0.60730000    0.00399927    0.06940000
opls_145-95    C    0.09150007    0.60760002    0.18650037    -0.11960000
opls_145-96    C    0.12460001    0.63040007    0.20480034    -0.12990000
opls_700-97    C    0.13750014    0.65329993    0.04090018    0.06600000
opls_145-98    C    0.11659986    0.65290009    0.85769985    -0.13250000
opls_145-99    C    0.08330007    0.63019986    0.83989998    -0.13250000
opls_142-100    C    0.17230012    0.67749997    0.06569991    0.06820000
opls_145-101    C    0.71810005    0.77549994    0.92579993    0.18590000
opls_145-102    C    0.73410006    0.76249985    0.74299938    -0.16580000
opls_145-103    C    0.76589994    0.73750015    0.11009926    -0.17320000
opls_145-104    C    0.50000000    0.10409988    0.98579963    -0.17480000
opls_700-105    C    0.50000000    0.97810001    0.98539985    -0.02630000
opls_145-106    C    0.00000000    0.60409988    0.98579963    -0.17480000
opls_700-107    C    0.00000000    0.47810001    0.98539985    -0.02630000
opls_145-108    C    0.50000000    0.89590012    0.98579963    -0.17480000
opls_700-109    C    0.50000000    0.02189999    0.98539985    -0.02630000
opls_145-110    C    0.00000000    0.39590012    0.98579963    -0.17480000
opls_700-111    C    0.00000000    0.52189999    0.98539985    -0.02630000
opls_146-112    H    0.40260010    0.03609986    0.97800021    0.11410000
opls_146-113    H    0.41810005    0.09039995    0.31510025    0.11260000
opls_146-114    H    0.35979997    0.13040007    0.34750027    0.11280000
opls_146-115    H    0.37430008    0.17019997    0.72889933    0.11280000
opls_146-116    H    0.43269994    0.13029996    0.69839938    0.11050000
opls_144-117    H    0.31270000    0.17629989    0.20969948    0.09230000
opls_146-118    H    0.77809987    0.27209991    0.60050010    0.11690000
opls_146-119    H    0.72199991    0.22900007    0.25410035    0.12540000
opls_146-120    H    0.90260010    0.53609986    0.97800021    0.11410000
opls_146-121    H    0.91810005    0.59039995    0.31510025    0.11260000
opls_146-122    H    0.85979997    0.63040007    0.34750027    0.11280000
opls_146-123    H    0.87430008    0.67019997    0.72889933    0.11280000
opls_146-124    H    0.93269994    0.63029996    0.69839938    0.11050000
opls_144-125    H    0.81270000    0.67629989    0.20969948    0.09230000
opls_146-126    H    0.27809987    0.77209991    0.60050010    0.11690000
opls_146-127    H    0.22199991    0.72900007    0.25410035    0.12540000
opls_146-128    H    0.59739990    0.96390014    0.97800021    0.11410000
opls_146-129    H    0.58189995    0.90960005    0.31510025    0.11260000
opls_146-130    H    0.64020003    0.86959993    0.34750027    0.11280000
opls_146-131    H    0.62569992    0.82980003    0.72889933    0.11280000
opls_146-132    H    0.56730006    0.86970004    0.69839938    0.11050000
opls_144-133    H    0.68730000    0.82370011    0.20969948    0.09230000
opls_146-134    H    0.22190013    0.72790009    0.60050010    0.11690000
opls_146-135    H    0.27800009    0.77099993    0.25410035    0.12540000
opls_146-136    H    0.09739990    0.46390014    0.97800021    0.11410000
opls_146-137    H    0.08189995    0.40960005    0.31510025    0.11260000
opls_146-138    H    0.14020003    0.36959993    0.34750027    0.11280000
opls_146-139    H    0.12569992    0.32980003    0.72889933    0.11280000
opls_146-140    H    0.06730006    0.36970004    0.69839938    0.11050000
opls_144-141    H    0.18730000    0.32370011    0.20969948    0.09230000
opls_146-142    H    0.72190013    0.22790009    0.60050010    0.11690000
opls_146-143    H    0.77800009    0.27099993    0.25410035    0.12540000
opls_146-144    H    0.40260010    0.96390014    0.97800021    0.11410000
opls_146-145    H    0.41810005    0.90960005    0.31510025    0.11260000
opls_146-146    H    0.35979997    0.86959993    0.34750027    0.11280000
opls_146-147    H    0.37430008    0.82980003    0.72889933    0.11280000
opls_146-148    H    0.43269994    0.86970004    0.69839938    0.11050000
opls_144-149    H    0.31270000    0.82370011    0.20969948    0.09230000
opls_146-150    H    0.77809987    0.72790009    0.60050010    0.11690000
opls_146-151    H    0.72199991    0.77099993    0.25410035    0.12540000
opls_146-152    H    0.90260010    0.46390014    0.97800021    0.11410000
opls_146-153    H    0.91810005    0.40960005    0.31510025    0.11260000
opls_146-154    H    0.85979997    0.36959993    0.34750027    0.11280000
opls_146-155    H    0.87430008    0.32980003    0.72889933    0.11280000
opls_146-156    H    0.93269994    0.36970004    0.69839938    0.11050000
opls_144-157    H    0.81270000    0.32370011    0.20969948    0.09230000
opls_146-158    H    0.27809987    0.22790009    0.60050010    0.11690000
opls_146-159    H    0.22199991    0.27099993    0.25410035    0.12540000
opls_146-160    H    0.59739990    0.03609986    0.97800021    0.11410000
opls_146-161    H    0.58189995    0.09039995    0.31510025    0.11260000
opls_146-162    H    0.64020003    0.13040007    0.34750027    0.11280000
opls_146-163    H    0.62569992    0.17019997    0.72889933    0.11280000
opls_146-164    H    0.56730006    0.13029996    0.69839938    0.11050000
opls_144-165    H    0.68730000    0.17629989    0.20969948    0.09230000
opls_146-166    H    0.22190013    0.27209991    0.60050010    0.11690000
opls_146-167    H    0.27800009    0.22900007    0.25410035    0.12540000
opls_146-168    H    0.09739990    0.53609986    0.97800021    0.11410000
opls_146-169    H    0.08189995    0.59039995    0.31510025    0.11260000
opls_146-170    H    0.14020003    0.63040007    0.34750027    0.11280000
opls_146-171    H    0.12569992    0.67019997    0.72889933    0.11280000
opls_146-172    H    0.06730006    0.63029996    0.69839938    0.11050000
opls_144-173    H    0.18730000    0.67629989    0.20969948    0.09230000
opls_146-174    H    0.72190013    0.77209991    0.60050010    0.11690000
opls_146-175    H    0.77800009    0.72900007    0.25410035    0.12540000
opls_146-176    H    0.50000000    0.13589994    0.99030052    0.10790000
opls_146-177    H    0.00000000    0.63589994    0.99030052    0.10790000
opls_146-178    H    0.50000000    0.86410006    0.99030052    0.10790000
opls_146-179    H    0.00000000    0.36410006    0.99030052    0.10790000
opls_750-180    N    0.31490010    0.19909994    0.91760074    -0.35010000
opls_750-181    N    0.81490010    0.69909994    0.91760074    -0.35010000
opls_750-182    N    0.68509990    0.80090006    0.91760074    -0.35010000
opls_750-183    N    0.18509990    0.30090006    0.91760074    -0.35010000
opls_750-184    N    0.31490010    0.80090006    0.91760074    -0.35010000
opls_750-185    N    0.81490010    0.30090006    0.91760074    -0.35010000
opls_750-186    N    0.68509990    0.19909994    0.91760074    -0.35010000
opls_750-187    N    0.18509990    0.69909994    0.91760074    -0.35010000
