#======================================================================
# Crystal Data Generated By AuToFF
#----------------------------------------------------------------------

data_AuToFF_phase_1

_cell_length_a                         36.8750
_cell_length_b                         4.1044
_cell_length_c                         36.8750
_cell_angle_alpha                      90.00
_cell_angle_beta                       120.00
_cell_angle_gamma                      90.00
_symmetry_space_group_name_H-M_alt     'P 1'
_symmetry_space_group_IT_number        1

loop_
_space_group_symop_operation_xyz
   'x, y, z'

loop_
   _atom_site_label
   _atom_site_type_symbol
   _atom_site_fract_x
   _atom_site_fract_y
   _atom_site_fract_z
   _atom_site_charge
opls_521-0    C    0.64713999    0.52220057    0.28874995    0.19260000
opls_522-1    C    0.62234988    0.52788958    0.30784986    -0.21740000
opls_700-2    C    0.62793005    0.51379008    0.24240004    0.03550000
opls_145-3    C    0.57751004    0.31028896    0.35324000    -0.12790000
opls_145-4    C    0.55424000    0.27559936    0.37341994    -0.16770000
opls_917-5    C    0.56830007    0.41612903    0.41278998    0.21410000
opls_145-6    C    0.60554998    0.59502972    0.43169982    -0.16360000
opls_145-7    C    0.62870989    0.63354936    0.41137991    -0.12860000
opls_701-8    C    0.50736005    0.52969009    0.42430003    0.07770000
opls_700-9    C    0.50276001    0.57623039    0.46305006    -0.03750000
opls_166-10    C    0.46333990    0.61674057    0.46024997    0.23710000
opls_145-11    C    0.46105988    0.60447081    0.49728994    -0.27930000
opls_181-12    C    0.61008988    0.77777020    0.58186004    -0.19460000
opls_423-13    C    0.47218005    0.34779018    0.39069989    0.23150000
opls_145-14    C    0.03486981    0.55236088    0.53996986    -0.27870000
opls_181-15    C    0.97801017    0.73218010    0.39203011    -0.19470000
opls_700-16    C    0.64120005    0.50816928    0.35159007    0.06640000
opls_522-17    C    0.68500001    0.48834909    0.37560001    -0.20170000
opls_700-18    C    0.61522999    0.48821021    0.37205998    0.06970000
opls_523-19    C    0.77481987    0.26796121    0.41838985    -0.12520000
opls_145-20    C    0.81824980    0.23056963    0.44087981    -0.16770000
opls_917-21    C    0.84305998    0.36214063    0.42563995    0.21040000
opls_145-22    C    0.82400002    0.52710019    0.38729983    -0.16640000
opls_523-23    C    0.78046004    0.56659926    0.36476008    -0.12800000
opls_701-24    C    0.91479001    0.48155881    0.48761989    0.08220000
opls_700-25    C    0.95922004    0.52448104    0.49476009    -0.03890000
opls_166-26    C    0.99446987    0.56557109    0.53519981    0.23550000
opls_423-27    C    0.91427013    0.30027044    0.52183002    0.23150000
opls_521-28    C    0.70912000    0.47906880    0.35584000    0.18560000
opls_700-29    C    0.75535017    0.43994006    0.38022007    0.02980000
opls_523-30    C    0.64899999    0.35632005    0.22435007    -0.12830000
opls_145-31    C    0.62981003    0.31886999    0.18092989    -0.16670000
opls_917-32    C    0.58936983    0.43910925    0.15486983    0.21900000
opls_145-33    C    0.56869997    0.60553065    0.17232984    -0.16570000
opls_523-34    C    0.58795993    0.64667917    0.21568990    -0.12850000
opls_701-35    C    0.57732993    0.54160900    0.08187992    0.08010000
opls_700-36    C    0.53771019    0.58843924    0.03911013    -0.03870000
opls_166-37    C    0.53915005    0.62848894    0.00175013    0.23540000
opls_423-38    C    0.61024001    0.35950931    0.07908015    0.23150000
opls_145-39    C    0.50136997    0.61638973    0.96303988    -0.27070000
opls_181-40    C    0.42061003    0.78755969    0.03166995    -0.19470000
opls_521-41    C    0.35286001    0.52220057    0.71125005    0.19260000
opls_522-42    C    0.37764996    0.52788958    0.69214982    -0.21740000
opls_700-43    C    0.37206995    0.51379008    0.75759996    0.03550000
opls_145-44    C    0.42248996    0.31028896    0.64676000    -0.12790000
opls_145-45    C    0.44576000    0.27559936    0.62658006    -0.16770000
opls_917-46    C    0.43169993    0.41612903    0.58721002    0.21410000
opls_145-47    C    0.39444986    0.59502972    0.56829986    -0.16360000
opls_145-48    C    0.37129011    0.63354936    0.58862009    -0.12860000
opls_701-49    C    0.49263995    0.52969009    0.57569997    0.07770000
opls_700-50    C    0.49723999    0.57623039    0.53694994    -0.03750000
opls_166-51    C    0.53666010    0.61674057    0.53975003    0.23710000
opls_145-52    C    0.53894012    0.60447081    0.50271006    -0.27930000
opls_181-53    C    0.38990984    0.77777020    0.41813996    -0.19470000
opls_423-54    C    0.52781979    0.34779018    0.60929979    0.23150000
opls_145-55    C    0.96513003    0.55236088    0.46002983    -0.27870000
opls_181-56    C    0.02198983    0.73218010    0.60796989    -0.19470000
opls_700-57    C    0.35879995    0.50816928    0.64840993    0.06640000
opls_522-58    C    0.31499999    0.48834909    0.62439999    -0.20170000
opls_700-59    C    0.38477001    0.48821021    0.62794002    0.06970000
opls_523-60    C    0.22517997    0.26796121    0.58160984    -0.12520000
opls_145-61    C    0.18175004    0.23056963    0.55911988    -0.16770000
opls_917-62    C    0.15694002    0.36214063    0.57436005    0.21040000
opls_145-63    C    0.17599983    0.52710019    0.61269986    -0.16630000
opls_523-64    C    0.21953996    0.56659926    0.63523992    -0.12800000
opls_701-65    C    0.08520983    0.48155881    0.51237980    0.08220000
opls_700-66    C    0.04077996    0.52448104    0.50523991    -0.03890000
opls_166-67    C    0.00552997    0.56557109    0.46479988    0.23550000
opls_423-68    C    0.08572987    0.30027044    0.47816998    0.23150000
opls_521-69    C    0.29088000    0.47906880    0.64416000    0.18560000
opls_700-70    C    0.24465010    0.43994006    0.61977993    0.02980000
opls_523-71    C    0.35100001    0.35632005    0.77564993    -0.12820000
opls_145-72    C    0.37018981    0.31886999    0.81906980    -0.16670000
opls_917-73    C    0.41063001    0.43910925    0.84512986    0.21910000
opls_145-74    C    0.43129987    0.60553065    0.82766985    -0.16570000
opls_523-75    C    0.41203991    0.64667917    0.78430979    -0.12850000
opls_701-76    C    0.42266992    0.54160900    0.91811976    0.08010000
opls_700-77    C    0.46228981    0.58843924    0.96088987    -0.03870000
opls_166-78    C    0.46084995    0.62848894    0.99824987    0.23540000
opls_423-79    C    0.38975999    0.35950931    0.92091985    0.23150000
opls_145-80    C    0.49863003    0.61638973    0.03696012    -0.27070000
opls_181-81    C    0.57938997    0.78755969    0.96833005    -0.19470000
opls_900-82    N    0.54629019    0.35833983    0.43490010    -0.40250000
opls_753-83    N    0.44449009    0.20597895    0.36416010    -0.29000000
opls_900-84    N    0.88743985    0.31366095    0.44798994    -0.40470000
opls_753-85    N    0.91378989    0.15910974    0.54875998    -0.30200000
opls_520-86    N    0.68947998    0.49662070    0.31331007    -0.29450000
opls_900-87    N    0.56791992    0.36948884    0.11101000    -0.40240000
opls_753-88    N    0.63626000    0.21753971    0.07697992    -0.29000000
opls_900-89    N    0.45370981    0.35833983    0.56509990    -0.40250000
opls_753-90    N    0.55550991    0.20597895    0.63583990    -0.28990000
opls_900-91    N    0.11256015    0.31366095    0.55201006    -0.40480000
opls_753-92    N    0.08621011    0.15910974    0.45124002    -0.30200000
opls_520-93    N    0.31052002    0.49662070    0.68668993    -0.29470000
opls_900-94    N    0.43208008    0.36948884    0.88899000    -0.40240000
opls_753-95    N    0.36373985    0.21753971    0.92301976    -0.29000000
opls_179-96    O    0.42774989    0.66838027    0.42042995    -0.19890000
opls_179-97    O    0.98783998    0.61938895    0.56930003    -0.19970000
opls_179-98    O    0.57839003    0.67963892    0.00462005    -0.19930000
opls_179-99    O    0.57225011    0.66838027    0.57957005    -0.19890000
opls_179-100    O    0.01216002    0.61938895    0.43069997    -0.19900000
opls_179-101    O    0.42160997    0.67963892    0.99537995    -0.19930000
opls_525-102    H    0.58861995    0.53846116    0.28898010    0.12380000
opls_146-103    H    0.56673996    0.18700906    0.32362988    0.11820000
opls_146-104    H    0.52598983    0.12991911    0.35900990    0.12000000
opls_146-105    H    0.61662983    0.70385927    0.46220990    0.11820000
opls_146-106    H    0.65710002    0.77732921    0.42643000    0.12270000
opls_146-107    H    0.43097979    0.61529091    0.49554982    0.12540000
opls_185-108    H    0.62365984    0.58419988    0.57121989    0.07430000
opls_185-109    H    0.63318999    0.83448007    0.61495978    0.07450000
opls_185-110    H    0.60440988    0.00312104    0.56307984    0.07450000
opls_910-111    H    0.55649997    0.16572946    0.45631005    0.27260000
opls_702-112    H    0.50794007    0.77170110    0.41163011    0.08940000
opls_146-113    H    0.06213012    0.56366095    0.57085007    0.12250000
opls_185-114    H    0.95381005    0.53982068    0.37708993    0.07430000
opls_185-115    H    0.98984013    0.79089026    0.37043009    0.09030000
opls_185-116    H    0.96432992    0.95712893    0.39701998    0.07450000
opls_525-117    H    0.70002017    0.47340902    0.40933010    0.12360000
opls_526-118    H    0.75658992    0.15336955    0.43045008    0.12480000
opls_146-119    H    0.83239991    0.09189894    0.46968986    0.12230000
opls_146-120    H    0.84293995    0.62646916    0.37506987    0.11830000
opls_526-121    H    0.76643986    0.69852110    0.33538982    0.11510000
opls_910-122    H    0.89939008    0.12620115    0.43780009    0.27260000
opls_702-123    H    0.90167000    0.72519979    0.48647004    0.08940000
opls_526-124    H    0.67968995    0.25041906    0.24385989    0.11540000
opls_146-125    H    0.64579998    0.18545951    0.16773014    0.11960000
opls_146-126    H    0.53749002    0.70059936    0.15228988    0.11820000
opls_526-127    H    0.57131003    0.78074993    0.22808989    0.12390000
opls_910-128    H    0.54633985    0.17800897    0.10027998    0.27260000
opls_702-129    H    0.59031012    0.78337881    0.09498010    0.07660000
opls_146-130    H    0.50207986    0.62706120    0.93416000    0.12250000
opls_185-131    H    0.43191997    0.59327064    0.05581986    0.07430000
opls_185-132    H    0.38773989    0.84377010    0.02267002    0.09030000
opls_185-133    H    0.43948013    0.01290079    0.04441001    0.07450000
opls_525-134    H    0.41138005    0.53846116    0.71101990    0.12370000
opls_146-135    H    0.43325988    0.18700906    0.67636980    0.11820000
opls_146-136    H    0.47401001    0.12991911    0.64098978    0.12000000
opls_146-137    H    0.38337017    0.70385927    0.53779010    0.11820000
opls_146-138    H    0.34289998    0.77732921    0.57357000    0.12270000
opls_146-139    H    0.56902005    0.61529091    0.50444986    0.12540000
opls_185-140    H    0.37634000    0.58419988    0.42877980    0.07430000
opls_185-141    H    0.36680985    0.83448007    0.38503990    0.07450000
opls_185-142    H    0.39558996    0.00312104    0.43691985    0.07460000
opls_910-143    H    0.44350003    0.16572946    0.54368995    0.27260000
opls_702-144    H    0.49205993    0.77170110    0.58836989    0.08940000
opls_146-145    H    0.93786988    0.56366095    0.42914993    0.12250000
opls_185-146    H    0.04618995    0.53982068    0.62291007    0.07430000
opls_185-147    H    0.01015987    0.79089026    0.62956991    0.09030000
opls_185-148    H    0.03567008    0.95712893    0.60298002    0.07450000
opls_525-149    H    0.29997983    0.47340902    0.59066990    0.12360000
opls_526-150    H    0.24341008    0.15336955    0.56954992    0.12490000
opls_146-151    H    0.16759993    0.09189894    0.53030983    0.12230000
opls_146-152    H    0.15705989    0.62646916    0.62492982    0.11820000
opls_526-153    H    0.23355998    0.69852110    0.66460986    0.11510000
opls_910-154    H    0.10060992    0.12620115    0.56219991    0.27260000
opls_702-155    H    0.09833000    0.72519979    0.51352996    0.08940000
opls_526-156    H    0.32030990    0.25041906    0.75613980    0.11540000
opls_146-157    H    0.35420002    0.18545951    0.83226986    0.11970000
opls_146-158    H    0.46250982    0.70059936    0.84770981    0.11820000
opls_526-159    H    0.42868981    0.78074993    0.77190979    0.12390000
opls_910-160    H    0.45365988    0.17800897    0.89972002    0.27260000
opls_702-161    H    0.40968988    0.78337881    0.90501990    0.07660000
opls_146-162    H    0.49792014    0.62706120    0.06584000    0.12250000
opls_185-163    H    0.56807988    0.59327064    0.94417982    0.07430000
opls_185-164    H    0.61226011    0.84377010    0.97732998    0.09030000
opls_185-165    H    0.56051987    0.01290079    0.95558999    0.07450000
