#======================================================================
# Crystal Data Generated By AuToFF
#----------------------------------------------------------------------

data_AuToFF_phase_1

_cell_length_a                         32.3900
_cell_length_b                         32.9600
_cell_length_c                         3.8300
_cell_angle_alpha                      90.00
_cell_angle_beta                       90.00
_cell_angle_gamma                      87.00
_symmetry_space_group_name_H-M_alt     'P 1'
_symmetry_space_group_IT_number        1

loop_
_space_group_symop_operation_xyz
   'x, y, z'

loop_
   _atom_site_label
   _atom_site_type_symbol
   _atom_site_fract_x
   _atom_site_fract_y
   _atom_site_fract_z
   _atom_site_charge
opls_538-0    C    0.95737008    0.50356997    0.52161097    0.25530000
opls_538-1    C    0.03652013    0.51785988    0.33610966    0.25530000
opls_700-2    C    0.07970001    0.52603006    0.24326110    -0.02520000
opls_521-3    C    0.11229014    0.49761004    0.33210966    0.08630000
opls_521-4    C    0.16199011    0.54187003    0.10210966    0.15570000
opls_522-5    C    0.13041997    0.57067984    0.00192950    -0.16010000
opls_523-6    C    0.08929995    0.56280011    0.07367885    -0.14820000
opls_521-7    C    0.46579016    0.84568992    0.75567885    0.13270000
opls_521-8    C    0.51005005    0.89539001    0.52567885    0.03400000
opls_700-9    C    0.48162995    0.92797988    0.61449869    -0.02100000
opls_523-10    C    0.44485995    0.91837995    0.78406005    -0.07860000
opls_522-11    C    0.43697022    0.87725989    0.85583029    -0.14470000
opls_523-12    C    0.54900990    0.10309001    0.07383029    -0.07860000
opls_522-13    C    0.55689994    0.14421007    0.00206005    -0.14470000
opls_521-14    C    0.52808000    0.17578004    0.10230026    0.13270000
opls_521-15    C    0.48382991    0.12606992    0.33236031    0.03400000
opls_700-16    C    0.51225009    0.09349008    0.24345953    -0.02100000
opls_538-17    C    0.50409001    0.05031015    0.33627937    0.36020000
opls_538-18    C    0.48979024    0.97115009    0.52167885    0.36020000
opls_700-19    C    0.58517996    0.47158014    0.53820888    0.03040000
opls_700-20    C    0.55281019    0.50279008    0.55706005    0.03500000
opls_700-21    C    0.51292996    0.49474993    0.42908877    0.00140000
opls_700-22    C    0.50488990    0.45487004    0.30114883    0.03740000
opls_700-23    C    0.53609999    0.42249011    0.32007050    0.02470000
opls_145-24    C    0.57582018    0.43186005    0.42914883    -0.10770000
opls_145-25    C    0.55884007    0.54146991    0.70822977    -0.11080000
opls_145-26    C    0.52768012    0.57263003    0.70820104    -0.10640000
opls_700-27    C    0.48899994    0.56658989    0.55698956    0.03240000
opls_700-28    C    0.48095996    0.52672002    0.42904961    0.00030000
opls_700-29    C    0.44108004    0.51867988    0.30107050    0.03500000
opls_145-30    C    0.43505008    0.47999002    0.14990078    -0.11080000
opls_145-31    C    0.46621003    0.44882990    0.14993995    -0.10820000
opls_700-32    C    0.45780002    0.59897013    0.53807050    0.02470000
opls_145-33    C    0.41806996    0.58959989    0.42898956    -0.10770000
opls_700-34    C    0.40871017    0.54988010    0.31993995    0.03060000
opls_700-35    C    0.52832998    0.37815994    0.24898956    0.07380000
opls_700-36    C    0.62952011    0.47934989    0.60931070    0.07350000
opls_700-37    C    0.36437004    0.54211005    0.24881984    0.07350000
opls_700-38    C    0.46557013    0.64331002    0.60915927    0.07380000
opls_145-39    C    0.49369993    0.35999001    0.39261097    -0.14610000
opls_145-40    C    0.48868005    0.31765013    0.35755091    -0.16880000
opls_145-41    C    0.51845012    0.29217013    0.18754047    0.21990000
opls_145-42    C    0.55311996    0.31001011    0.04092950    -0.14530000
opls_145-43    C    0.55783004    0.35254990    0.07055091    -0.07880000
opls_145-44    C    0.33876994    0.57161012    0.07036031    -0.14880000
opls_145-45    C    0.29621991    0.56690009    0.04069974    -0.14880000
opls_145-46    C    0.27839020    0.53223000    0.18731070    0.21370000
opls_145-47    C    0.30386018    0.50246014    0.35736031    -0.15020000
opls_145-48    C    0.34621009    0.50749009    0.39245953    -0.11090000
opls_145-49    C    0.50019021    0.66146992    0.46554047    -0.14090000
opls_145-50    C    0.50521008    0.70381011    0.50057963    -0.16880000
opls_145-51    C    0.47544001    0.72929011    0.67059008    0.22020000
opls_145-52    C    0.44076996    0.71145985    0.81720888    -0.14530000
opls_145-53    C    0.43606011    0.66891003    0.78760052    -0.07890000
opls_145-54    C    0.65511988    0.44985011    0.78777023    -0.13220000
opls_145-55    C    0.69766992    0.45455984    0.81740992    -0.14880000
opls_145-56    C    0.71551013    0.48922993    0.67075979    0.21370000
opls_145-57    C    0.69002995    0.51900010    0.50073107    -0.15800000
opls_145-58    C    0.64768006    0.51396984    0.46566057    -0.11090000
opls_142-59    C    0.20567017    0.55083985    0.05071018    0.03080000
opls_142-60    C    0.53705013    0.21946004    0.05085117    -0.02570000
opls_700-61    C    0.91418995    0.49541012    0.61448042    -0.02490000
opls_521-62    C    0.88161001    0.52383014    0.52568930    0.08630000
opls_521-63    C    0.83189995    0.47957987    0.75571018    0.15560000
opls_522-64    C    0.86348011    0.45075001    0.85583029    -0.16440000
opls_523-65    C    0.90459989    0.45864007    0.78403916    -0.14740000
opls_142-66    C    0.78822012    0.47060003    0.80714883    0.03080000
opls_142-67    C    0.45682003    0.80200991    0.80712010    -0.02570000
opls_537-68    N    0.98867008    0.47487014    0.58473107    -0.24780000
opls_537-69    N    0.02742010    0.48190010    0.49472063    -0.24040000
opls_537-70    N    0.00522020    0.54657004    0.27297911    -0.24280000
opls_537-71    N    0.96647008    0.53953005    0.36300000    -0.24040000
opls_520-72    N    0.15203995    0.50624992    0.26277023    -0.28260000
opls_520-73    N    0.50141000    0.85563984    0.59502872    -0.27730000
opls_520-74    N    0.49247004    0.16583011    0.26302089    -0.27730000
opls_537-75    N    0.52574997    0.98025996    0.36308094    -0.24070000
opls_537-76    N    0.53279000    0.01900997    0.27312010    -0.25990000
opls_537-77    N    0.46811989    0.04121000    0.49487990    -0.24060000
opls_537-78    N    0.46108996    0.00244996    0.58484073    -0.25990000
opls_750-79    N    0.51297010    0.24847007    0.18844125    -0.27190000
opls_750-80    N    0.23468019    0.52675010    0.18815927    -0.27720000
opls_750-81    N    0.75921017    0.49470011    0.66985901    -0.27720000
opls_520-82    N    0.84185003    0.51518996    0.59507050    -0.28260000
opls_750-83    N    0.48090994    0.77299989    0.66967885    -0.27190000
opls_146-84    H    0.60009019    0.40759013    0.42916971    0.12690000
opls_146-85    H    0.58756002    0.54793994    0.83406005    0.13670000
opls_146-86    H    0.53415005    0.60135993    0.83400000    0.12520000
opls_146-87    H    0.40633013    0.47351999    0.02407050    0.13670000
opls_146-88    H    0.45974018    0.42011002    0.02414099    0.12560000
opls_146-89    H    0.39379994    0.61387010    0.42897911    0.12690000
opls_524-90    H    0.10633994    0.46892996    0.46369974    0.08910000
opls_525-91    H    0.13760020    0.59918007    0.87331070    0.09930000
opls_526-92    H    0.06503006    0.58540998    0.99809922    0.13000000
opls_524-93    H    0.53873009    0.90133991    0.39412010    0.12720000
opls_526-94    H    0.42224015    0.94264986    0.85961880    0.08990000
opls_525-95    H    0.40847014    0.87007012    0.98443081    0.13410000
opls_526-96    H    0.57162993    0.07881007    0.99820104    0.11620000
opls_525-97    H    0.58539005    0.15139012    0.87338903    0.13570000
opls_524-98    H    0.45514987    0.12012002    0.46400000    0.12710000
opls_146-99    H    0.47115989    0.37820004    0.54286945    0.13420000
opls_146-100    H    0.46229012    0.30404988    0.47616971    0.13610000
opls_146-101    H    0.57678013    0.29161992    0.90516971    0.13190000
opls_146-102    H    0.58485014    0.36539001    0.95626110    0.13740000
opls_146-103    H    0.35161005    0.59862986    0.95608094    0.12840000
opls_146-104    H    0.27783019    0.59055994    0.90487990    0.12820000
opls_146-105    H    0.29026997    0.47606991    0.47597911    0.13400000
opls_146-106    H    0.36442007    0.48495010    0.54278068    0.12650000
opls_146-107    H    0.52272995    0.64325989    0.31526893    0.13420000
opls_146-108    H    0.53160003    0.71741005    0.38196084    0.13610000
opls_146-109    H    0.41711010    0.72985004    0.95300000    0.13250000
opls_146-110    H    0.40904001    0.65606992    0.90190078    0.13740000
opls_146-111    H    0.64228018    0.42284010    0.90207050    0.12510000
opls_146-112    H    0.71606003    0.43091002    0.95322977    0.12870000
opls_146-113    H    0.70363006    0.54539003    0.38208877    0.12030000
opls_146-114    H    0.62947016    0.53651986    0.31534987    0.12640000
opls_144-115    H    0.21265008    0.57862003    0.91179896    0.09440000
opls_144-116    H    0.56482011    0.22643988    0.91172063    0.14210000
opls_524-117    H    0.88756001    0.55251994    0.39412010    0.08800000
opls_525-118    H    0.85628999    0.42225009    0.98442037    0.09930000
opls_526-119    H    0.92887002    0.43601987    0.85957963    0.12610000
opls_144-120    H    0.78124010    0.44281013    0.94593995    0.09390000
opls_144-121    H    0.42904017    0.79503008    0.94609922    0.14210000
