#======================================================================
# Crystal Data Generated By AuToFF
#----------------------------------------------------------------------

data_AuToFF_phase_1

_cell_length_a                         32.0100
_cell_length_b                         32.0100
_cell_length_c                         7.6500
_cell_angle_alpha                      90.00
_cell_angle_beta                       90.00
_cell_angle_gamma                      90.00
_symmetry_space_group_name_H-M_alt     'P 1'
_symmetry_space_group_IT_number        1

loop_
_space_group_symop_operation_xyz
   'x, y, z'

loop_
   _atom_site_label
   _atom_site_type_symbol
   _atom_site_fract_x
   _atom_site_fract_y
   _atom_site_fract_z
   _atom_site_charge
opls_145-0    C    0.03792002    0.87254014    0.59433987    -0.16650000
opls_145-1    C    0.03801999    0.90707998    0.70284052    -0.10810000
opls_145-2    C    0.53794002    0.22902999    0.60247974    -0.12970000
opls_145-3    C    0.53792002    0.37254014    0.09433987    -0.16650000
opls_145-4    C    0.53801999    0.40707998    0.20284052    -0.10810000
opls_145-5    C    0.03794002    0.72902999    0.10247974    -0.12960000
opls_145-6    C    0.46207998    0.62745986    0.09433987    -0.16650000
opls_145-7    C    0.46198001    0.59292002    0.20284052    -0.10810000
opls_145-8    C    0.96205998    0.27097001    0.10247974    -0.12970000
opls_145-9    C    0.96207998    0.12745986    0.59433987    -0.16650000
opls_145-10    C    0.96198001    0.09292002    0.70284052    -0.10810000
opls_145-11    C    0.46205998    0.77097001    0.60247974    -0.12970000
opls_145-12    C    0.12745986    0.53792002    0.84433987    -0.16650000
opls_145-13    C    0.09292002    0.53801999    0.95284052    -0.10810000
opls_145-14    C    0.77097001    0.03794002    0.85247974    -0.12970000
opls_145-15    C    0.62745986    0.03792002    0.34433987    -0.16650000
opls_145-16    C    0.59292002    0.03801999    0.45284052    -0.10810000
opls_145-17    C    0.27097001    0.53794002    0.35247974    -0.12970000
opls_145-18    C    0.37254014    0.96207998    0.34433987    -0.16650000
opls_145-19    C    0.40707998    0.96198001    0.45284052    -0.10810000
opls_145-20    C    0.72902999    0.46205998    0.35247974    -0.12960000
opls_145-21    C    0.87254014    0.46207998    0.84433987    -0.16650000
opls_145-22    C    0.90707998    0.46198001    0.95284052    -0.10810000
opls_145-23    C    0.22902999    0.96205998    0.85247974    -0.12970000
opls_145-24    C    0.46207998    0.87254014    0.15566013    -0.16640000
opls_145-25    C    0.46198001    0.90707998    0.04715948    -0.10810000
opls_145-26    C    0.96205998    0.22902999    0.14752026    -0.12970000
opls_145-27    C    0.96207998    0.37254014    0.65566013    -0.16650000
opls_145-28    C    0.96198001    0.40707998    0.54715948    -0.10810000
opls_145-29    C    0.46205998    0.72902999    0.64752026    -0.12970000
opls_145-30    C    0.03792002    0.62745986    0.65566013    -0.16650000
opls_145-31    C    0.03801999    0.59292002    0.54715948    -0.10810000
opls_145-32    C    0.53794002    0.27097001    0.64752026    -0.12970000
opls_145-33    C    0.53792002    0.12745986    0.15566013    -0.16650000
opls_145-34    C    0.53801999    0.09292002    0.04715948    -0.10810000
opls_145-35    C    0.03794002    0.77097001    0.14752026    -0.12970000
opls_145-36    C    0.37254014    0.53792002    0.90566013    -0.16650000
opls_145-37    C    0.40707998    0.53801999    0.79715948    -0.10810000
opls_145-38    C    0.72902999    0.03794002    0.89752026    -0.12970000
opls_145-39    C    0.87254014    0.03792002    0.40566013    -0.16650000
opls_145-40    C    0.90707998    0.03801999    0.29715948    -0.10810000
opls_145-41    C    0.22902999    0.53794002    0.39752026    -0.12970000
opls_145-42    C    0.12745986    0.96207998    0.40566013    -0.16650000
opls_145-43    C    0.09292002    0.96198001    0.29715948    -0.10810000
opls_145-44    C    0.77097001    0.46205998    0.39752026    -0.12970000
opls_145-45    C    0.62745986    0.46207998    0.90566013    -0.16650000
opls_145-46    C    0.59292002    0.46198001    0.79715948    -0.10810000
opls_145-47    C    0.27097001    0.96205998    0.89752026    -0.12970000
opls_145-48    C    0.96207998    0.62745986    0.65566013    -0.16650000
opls_145-49    C    0.96198001    0.59292002    0.54715948    -0.10810000
opls_145-50    C    0.46205998    0.27097001    0.64752026    -0.12970000
opls_145-51    C    0.46207998    0.12745986    0.15566013    -0.16650000
opls_145-52    C    0.46198001    0.09292002    0.04715948    -0.10810000
opls_145-53    C    0.96205998    0.77097001    0.14752026    -0.12970000
opls_145-54    C    0.53792002    0.87254014    0.15566013    -0.16650000
opls_145-55    C    0.53801999    0.90707998    0.04715948    -0.10810000
opls_145-56    C    0.03794002    0.22902999    0.14752026    -0.12970000
opls_145-57    C    0.03792002    0.37254014    0.65566013    -0.16650000
opls_145-58    C    0.03801999    0.40707998    0.54715948    -0.10810000
opls_145-59    C    0.53794002    0.72902999    0.64752026    -0.12970000
opls_145-60    C    0.87254014    0.96207998    0.40566013    -0.16650000
opls_145-61    C    0.90707998    0.96198001    0.29715948    -0.10810000
opls_145-62    C    0.22902999    0.46205998    0.39752026    -0.12970000
opls_145-63    C    0.37254014    0.46207998    0.90566013    -0.16650000
opls_145-64    C    0.40707998    0.46198001    0.79715948    -0.10810000
opls_145-65    C    0.72902999    0.96205998    0.89752026    -0.12970000
opls_145-66    C    0.62745986    0.53792002    0.90566013    -0.16650000
opls_145-67    C    0.59292002    0.53801999    0.79715948    -0.10810000
opls_145-68    C    0.27097001    0.03794002    0.89752026    -0.12970000
opls_145-69    C    0.12745986    0.03792002    0.40566013    -0.16650000
opls_145-70    C    0.09292002    0.03801999    0.29715948    -0.10810000
opls_145-71    C    0.77097001    0.53794002    0.39752026    -0.12970000
opls_145-72    C    0.53792002    0.62745986    0.09433987    -0.16650000
opls_145-73    C    0.53801999    0.59292002    0.20284052    -0.10810000
opls_145-74    C    0.03794002    0.27097001    0.10247974    -0.12970000
opls_145-75    C    0.03792002    0.12745986    0.59433987    -0.16650000
opls_145-76    C    0.03801999    0.09292002    0.70284052    -0.10810000
opls_145-77    C    0.53794002    0.77097001    0.60247974    -0.12970000
opls_145-78    C    0.96207998    0.87254014    0.59433987    -0.16650000
opls_145-79    C    0.96198001    0.90707998    0.70284052    -0.10810000
opls_145-80    C    0.46205998    0.22902999    0.60247974    -0.12970000
opls_145-81    C    0.46207998    0.37254014    0.09433987    -0.16650000
opls_145-82    C    0.46198001    0.40707998    0.20284052    -0.10810000
opls_145-83    C    0.96205998    0.72902999    0.10247974    -0.12970000
opls_145-84    C    0.62745986    0.96207998    0.34433987    -0.16650000
opls_145-85    C    0.59292002    0.96198001    0.45284052    -0.10810000
opls_145-86    C    0.27097001    0.46205998    0.35247974    -0.12970000
opls_145-87    C    0.12745986    0.46207998    0.84433987    -0.16650000
opls_145-88    C    0.09292002    0.46198001    0.95284052    -0.10810000
opls_145-89    C    0.77097001    0.96205998    0.85247974    -0.12970000
opls_145-90    C    0.87254014    0.53792002    0.84433987    -0.16650000
opls_145-91    C    0.90707998    0.53801999    0.95284052    -0.10810000
opls_145-92    C    0.22902999    0.03794002    0.85247974    -0.12970000
opls_145-93    C    0.37254014    0.03792002    0.34433987    -0.16650000
opls_145-94    C    0.40707998    0.03801999    0.45284052    -0.10810000
opls_145-95    C    0.72902999    0.53794002    0.35247974    -0.12970000
opls_700-96    C    0.00000000    0.92379007    0.76395033    0.04430000
opls_261-97    C    0.00000000    0.82769010    0.26403007    0.23830000
opls_145-98    C    0.00000000    0.14480006    0.54260000    0.22060000
opls_701-99    C    0.00000000    0.46101999    0.36818039    -0.01110000
opls_145-100    C    0.00000000    0.29209997    0.08230980    -0.00310000
opls_700-101    C    0.50000000    0.42379007    0.26395033    0.04430000
opls_261-102    C    0.50000000    0.32769010    0.76403007    0.23830000
opls_145-103    C    0.50000000    0.64480006    0.04260000    0.22060000
opls_701-104    C    0.50000000    0.96101999    0.86818039    -0.01110000
opls_145-105    C    0.50000000    0.79209997    0.58230980    -0.00310000
opls_700-106    C    0.50000000    0.57620993    0.26395033    0.04430000
opls_261-107    C    0.50000000    0.67230990    0.76403007    0.23830000
opls_145-108    C    0.50000000    0.35519994    0.04260000    0.22060000
opls_701-109    C    0.50000000    0.03898001    0.86818039    -0.01110000
opls_145-110    C    0.50000000    0.20790003    0.58230980    -0.00310000
opls_700-111    C    0.00000000    0.07620993    0.76395033    0.04430000
opls_261-112    C    0.00000000    0.17230990    0.26403007    0.23830000
opls_145-113    C    0.00000000    0.85519994    0.54260000    0.22070000
opls_701-114    C    0.00000000    0.53898001    0.36818039    -0.01110000
opls_145-115    C    0.00000000    0.70790003    0.08230980    -0.00310000
opls_700-116    C    0.07620993    0.50000000    0.01395033    0.04430000
opls_261-117    C    0.17230990    0.50000000    0.51403007    0.23830000
opls_145-118    C    0.85519994    0.50000000    0.79260000    0.22060000
opls_701-119    C    0.53898001    0.50000000    0.61818039    -0.01110000
opls_145-120    C    0.70790003    0.50000000    0.33230980    -0.00310000
opls_700-121    C    0.42379007    0.00000000    0.51395033    0.04430000
opls_261-122    C    0.32769010    0.00000000    0.01403007    0.23830000
opls_145-123    C    0.64480006    0.00000000    0.29260000    0.22060000
opls_701-124    C    0.96101999    0.00000000    0.11818039    -0.01110000
opls_145-125    C    0.79209997    0.00000000    0.83230980    -0.00310000
opls_700-126    C    0.50000000    0.92379007    0.98604967    0.04430000
opls_261-127    C    0.50000000    0.82769010    0.48596993    0.23830000
opls_145-128    C    0.50000000    0.14480006    0.20740000    0.22070000
opls_701-129    C    0.50000000    0.46101999    0.38181961    -0.01110000
opls_145-130    C    0.50000000    0.29209997    0.66769020    -0.00310000
opls_700-131    C    0.00000000    0.42379007    0.48604967    0.04430000
opls_261-132    C    0.00000000    0.32769010    0.98596993    0.23830000
opls_145-133    C    0.00000000    0.64480006    0.70740000    0.22070000
opls_701-134    C    0.00000000    0.96101999    0.88181961    -0.01110000
opls_145-135    C    0.00000000    0.79209997    0.16769020    -0.00310000
opls_700-136    C    0.00000000    0.57620993    0.48604967    0.04430000
opls_261-137    C    0.00000000    0.67230990    0.98596993    0.23830000
opls_145-138    C    0.00000000    0.35519994    0.70740000    0.22060000
opls_701-139    C    0.00000000    0.03898001    0.88181961    -0.01110000
opls_145-140    C    0.00000000    0.20790003    0.16769020    -0.00310000
opls_700-141    C    0.50000000    0.07620993    0.98604967    0.04430000
opls_261-142    C    0.50000000    0.17230990    0.48596993    0.23840000
opls_145-143    C    0.50000000    0.85519994    0.20740000    0.22060000
opls_701-144    C    0.50000000    0.53898001    0.38181961    -0.01110000
opls_145-145    C    0.50000000    0.70790003    0.66769020    -0.00310000
opls_700-146    C    0.42379007    0.50000000    0.73604967    0.04430000
opls_261-147    C    0.32769010    0.50000000    0.23596993    0.23830000
opls_145-148    C    0.64480006    0.50000000    0.95740000    0.22060000
opls_701-149    C    0.96101999    0.50000000    0.13181961    -0.01110000
opls_145-150    C    0.79209997    0.50000000    0.41769020    -0.00310000
opls_700-151    C    0.07620993    0.00000000    0.23604967    0.04430000
opls_261-152    C    0.17230990    0.00000000    0.73596993    0.23830000
opls_145-153    C    0.85519994    0.00000000    0.45740000    0.22060000
opls_701-154    C    0.53898001    0.00000000    0.63181961    -0.01110000
opls_145-155    C    0.70790003    0.00000000    0.91769020    -0.00310000
opls_700-156    C    0.92379007    0.00000000    0.23604967    0.04430000
opls_261-157    C    0.82769010    0.00000000    0.73596993    0.23830000
opls_145-158    C    0.14480006    0.00000000    0.45740000    0.22060000
opls_701-159    C    0.46101999    0.00000000    0.63181961    -0.01110000
opls_145-160    C    0.29209997    0.00000000    0.91769020    -0.00310000
opls_700-161    C    0.57620993    0.50000000    0.73604967    0.04430000
opls_261-162    C    0.67230990    0.50000000    0.23596993    0.23830000
opls_145-163    C    0.35519994    0.50000000    0.95740000    0.22060000
opls_701-164    C    0.03898001    0.50000000    0.13181961    -0.01110000
opls_145-165    C    0.20790003    0.50000000    0.41769020    -0.00310000
opls_700-166    C    0.57620993    0.00000000    0.51395033    0.04430000
opls_261-167    C    0.67230990    0.00000000    0.01403007    0.23840000
opls_145-168    C    0.35519994    0.00000000    0.29260000    0.22060000
opls_701-169    C    0.03898001    0.00000000    0.11818039    -0.01110000
opls_145-170    C    0.20790003    0.00000000    0.83230980    -0.00310000
opls_700-171    C    0.92379007    0.50000000    0.01395033    0.04430000
opls_261-172    C    0.82769010    0.50000000    0.51403007    0.23830000
opls_145-173    C    0.14480006    0.50000000    0.79260000    0.22070000
opls_701-174    C    0.46101999    0.50000000    0.61818039    -0.01110000
opls_145-175    C    0.29209997    0.50000000    0.33230980    -0.00310000
opls_261-176    C    0.53870009    0.96129991    0.75000000    -0.07770000
opls_261-177    C    0.96129991    0.53870009    0.25000000    -0.07780000
opls_261-178    C    0.03870009    0.03870009    0.00000000    -0.07780000
opls_261-179    C    0.46129991    0.46129991    0.50000000    -0.07780000
opls_261-180    C    0.96129991    0.96129991    0.00000000    -0.07780000
opls_261-181    C    0.53870009    0.53870009    0.50000000    -0.07780000
opls_261-182    C    0.46129991    0.03870009    0.75000000    -0.07780000
opls_261-183    C    0.03870009    0.46129991    0.25000000    -0.07780000
opls_261-184    C    0.46129991    0.53870009    0.50000000    -0.07780000
opls_261-185    C    0.03870009    0.96129991    0.00000000    -0.07770000
opls_261-186    C    0.96129991    0.46129991    0.25000000    -0.07780000
opls_261-187    C    0.53870009    0.03870009    0.75000000    -0.07780000
opls_261-188    C    0.03870009    0.53870009    0.25000000    -0.07780000
opls_261-189    C    0.46129991    0.96129991    0.75000000    -0.07780000
opls_261-190    C    0.53870009    0.46129991    0.50000000    -0.07780000
opls_261-191    C    0.96129991    0.03870009    0.00000000    -0.07780000
opls_261-192    C    0.00000000    0.50000000    0.48269935    -0.08150000
opls_261-193    C    0.50000000    0.00000000    0.98270065    -0.08150000
opls_261-194    C    0.50000000    0.50000000    0.73269935    -0.08150000
opls_261-195    C    0.00000000    0.00000000    0.23269935    -0.08150000
opls_261-196    C    0.50000000    0.50000000    0.26730065    -0.08150000
opls_261-197    C    0.00000000    0.00000000    0.76729935    -0.08150000
opls_261-198    C    0.00000000    0.50000000    0.01729935    -0.08150000
opls_261-199    C    0.50000000    0.00000000    0.51730065    -0.08150000
opls_146-200    H    0.06722993    0.85944986    0.54935033    0.12020000
opls_146-201    H    0.06782006    0.92062012    0.73850980    0.11750000
opls_146-202    H    0.56742987    0.21334989    0.57867059    0.11510000
opls_146-203    H    0.56722993    0.35944986    0.04935033    0.12020000
opls_146-204    H    0.56782006    0.42062012    0.23850980    0.11740000
opls_146-205    H    0.06742987    0.71334989    0.07867059    0.11510000
opls_146-206    H    0.43277007    0.64055014    0.04935033    0.12020000
opls_146-207    H    0.43217994    0.57937988    0.23850980    0.11740000
opls_146-208    H    0.93257013    0.28665011    0.07867059    0.11510000
opls_146-209    H    0.93277007    0.14055014    0.54935033    0.12020000
opls_146-210    H    0.93217994    0.07937988    0.73850980    0.11740000
opls_146-211    H    0.43257013    0.78665011    0.57867059    0.11510000
opls_146-212    H    0.14055014    0.56722993    0.79935033    0.12020000
opls_146-213    H    0.07937988    0.56782006    0.98850980    0.11740000
opls_146-214    H    0.78665011    0.06742987    0.82867059    0.11510000
opls_146-215    H    0.64055014    0.06722993    0.29935033    0.12030000
opls_146-216    H    0.57937988    0.06782006    0.48850980    0.11740000
opls_146-217    H    0.28665011    0.56742987    0.32867059    0.11510000
opls_146-218    H    0.35944986    0.93277007    0.29935033    0.12020000
opls_146-219    H    0.42062012    0.93217994    0.48850980    0.11740000
opls_146-220    H    0.71334989    0.43257013    0.32867059    0.11510000
opls_146-221    H    0.85944986    0.43277007    0.79935033    0.12020000
opls_146-222    H    0.92062012    0.43217994    0.98850980    0.11740000
opls_146-223    H    0.21334989    0.93257013    0.82867059    0.11510000
opls_146-224    H    0.43277007    0.85944986    0.20064967    0.12020000
opls_146-225    H    0.43217994    0.92062012    0.01149020    0.11740000
opls_146-226    H    0.93257013    0.21334989    0.17132941    0.11510000
opls_146-227    H    0.93277007    0.35944986    0.70064967    0.12020000
opls_146-228    H    0.93217994    0.42062012    0.51149020    0.11740000
opls_146-229    H    0.43257013    0.71334989    0.67132941    0.11510000
opls_146-230    H    0.06722993    0.64055014    0.70064967    0.12020000
opls_146-231    H    0.06782006    0.57937988    0.51149020    0.11740000
opls_146-232    H    0.56742987    0.28665011    0.67132941    0.11510000
opls_146-233    H    0.56722993    0.14055014    0.20064967    0.12020000
opls_146-234    H    0.56782006    0.07937988    0.01149020    0.11740000
opls_146-235    H    0.06742987    0.78665011    0.17132941    0.11510000
opls_146-236    H    0.35944986    0.56722993    0.95064967    0.12020000
opls_146-237    H    0.42062012    0.56782006    0.76149020    0.11740000
opls_146-238    H    0.71334989    0.06742987    0.92132941    0.11520000
opls_146-239    H    0.85944986    0.06722993    0.45064967    0.12020000
opls_146-240    H    0.92062012    0.06782006    0.26149020    0.11740000
opls_146-241    H    0.21334989    0.56742987    0.42132941    0.11510000
opls_146-242    H    0.14055014    0.93277007    0.45064967    0.12020000
opls_146-243    H    0.07937988    0.93217994    0.26149020    0.11740000
opls_146-244    H    0.78665011    0.43257013    0.42132941    0.11510000
opls_146-245    H    0.64055014    0.43277007    0.95064967    0.12020000
opls_146-246    H    0.57937988    0.43217994    0.76149020    0.11740000
opls_146-247    H    0.28665011    0.93257013    0.92132941    0.11510000
opls_146-248    H    0.93277007    0.64055014    0.70064967    0.12020000
opls_146-249    H    0.93217994    0.57937988    0.51149020    0.11740000
opls_146-250    H    0.43257013    0.28665011    0.67132941    0.11510000
opls_146-251    H    0.43277007    0.14055014    0.20064967    0.12020000
opls_146-252    H    0.43217994    0.07937988    0.01149020    0.11740000
opls_146-253    H    0.93257013    0.78665011    0.17132941    0.11510000
opls_146-254    H    0.56722993    0.85944986    0.20064967    0.12020000
opls_146-255    H    0.56782006    0.92062012    0.01149020    0.11740000
opls_146-256    H    0.06742987    0.21334989    0.17132941    0.11510000
opls_146-257    H    0.06722993    0.35944986    0.70064967    0.12020000
opls_146-258    H    0.06782006    0.42062012    0.51149020    0.11740000
opls_146-259    H    0.56742987    0.71334989    0.67132941    0.11520000
opls_146-260    H    0.85944986    0.93277007    0.45064967    0.12030000
opls_146-261    H    0.92062012    0.93217994    0.26149020    0.11740000
opls_146-262    H    0.21334989    0.43257013    0.42132941    0.11510000
opls_146-263    H    0.35944986    0.43277007    0.95064967    0.12030000
opls_146-264    H    0.42062012    0.43217994    0.76149020    0.11740000
opls_146-265    H    0.71334989    0.93257013    0.92132941    0.11510000
opls_146-266    H    0.64055014    0.56722993    0.95064967    0.12030000
opls_146-267    H    0.57937988    0.56782006    0.76149020    0.11740000
opls_146-268    H    0.28665011    0.06742987    0.92132941    0.11510000
opls_146-269    H    0.14055014    0.06722993    0.45064967    0.12020000
opls_146-270    H    0.07937988    0.06782006    0.26149020    0.11740000
opls_146-271    H    0.78665011    0.56742987    0.42132941    0.11510000
opls_146-272    H    0.56722993    0.64055014    0.04935033    0.12020000
opls_146-273    H    0.56782006    0.57937988    0.23850980    0.11740000
opls_146-274    H    0.06742987    0.28665011    0.07867059    0.11510000
opls_146-275    H    0.06722993    0.14055014    0.54935033    0.12020000
opls_146-276    H    0.06782006    0.07937988    0.73850980    0.11740000
opls_146-277    H    0.56742987    0.78665011    0.57867059    0.11520000
opls_146-278    H    0.93277007    0.85944986    0.54935033    0.12020000
opls_146-279    H    0.93217994    0.92062012    0.73850980    0.11740000
opls_146-280    H    0.43257013    0.21334989    0.57867059    0.11510000
opls_146-281    H    0.43277007    0.35944986    0.04935033    0.12020000
opls_146-282    H    0.43217994    0.42062012    0.23850980    0.11740000
opls_146-283    H    0.93257013    0.71334989    0.07867059    0.11510000
opls_146-284    H    0.64055014    0.93277007    0.29935033    0.12020000
opls_146-285    H    0.57937988    0.93217994    0.48850980    0.11740000
opls_146-286    H    0.28665011    0.43257013    0.32867059    0.11510000
opls_146-287    H    0.14055014    0.43277007    0.79935033    0.12020000
opls_146-288    H    0.07937988    0.43217994    0.98850980    0.11740000
opls_146-289    H    0.78665011    0.93257013    0.82867059    0.11520000
opls_146-290    H    0.85944986    0.56722993    0.79935033    0.12020000
opls_146-291    H    0.92062012    0.56782006    0.98850980    0.11740000
opls_146-292    H    0.21334989    0.06742987    0.82867059    0.11510000
opls_146-293    H    0.35944986    0.06722993    0.29935033    0.12020000
opls_146-294    H    0.42062012    0.06782006    0.48850980    0.11740000
opls_146-295    H    0.71334989    0.56742987    0.32867059    0.11510000
opls_750-296    N    0.00000000    0.82222993    0.43743007    -0.26730000
opls_750-297    N    0.50000000    0.32222993    0.93743007    -0.26740000
opls_750-298    N    0.50000000    0.67777007    0.93743007    -0.26740000
opls_750-299    N    0.00000000    0.17777007    0.43743007    -0.26740000
opls_750-300    N    0.17777007    0.50000000    0.68743007    -0.26740000
opls_750-301    N    0.32222993    0.00000000    0.18743007    -0.26730000
opls_750-302    N    0.50000000    0.82222993    0.31256993    -0.26740000
opls_750-303    N    0.00000000    0.32222993    0.81256993    -0.26740000
opls_750-304    N    0.00000000    0.67777007    0.81256993    -0.26740000
opls_750-305    N    0.50000000    0.17777007    0.31256993    -0.26740000
opls_750-306    N    0.32222993    0.50000000    0.06256993    -0.26730000
opls_750-307    N    0.17777007    0.00000000    0.56256993    -0.26740000
opls_750-308    N    0.82222993    0.00000000    0.56256993    -0.26730000
opls_750-309    N    0.67777007    0.50000000    0.06256993    -0.26740000
opls_750-310    N    0.67777007    0.00000000    0.18743007    -0.26740000
opls_750-311    N    0.82222993    0.50000000    0.68743007    -0.26740000
