#======================================================================
# Crystal Data Generated By AuToFF
#----------------------------------------------------------------------

data_AuToFF_phase_1

_cell_length_a                         30.2043
_cell_length_b                         30.1749
_cell_length_c                         7.1974
_cell_angle_alpha                      92.73
_cell_angle_beta                       91.53
_cell_angle_gamma                      60.00
_symmetry_space_group_name_H-M_alt     'P 1'
_symmetry_space_group_IT_number        1

loop_
_space_group_symop_operation_xyz
   'x, y, z'

loop_
   _atom_site_label
   _atom_site_type_symbol
   _atom_site_fract_x
   _atom_site_fract_y
   _atom_site_fract_z
   _atom_site_charge
opls_700-0    C    0.02424019    0.03014006    0.98953987    0.08040000
opls_700-1    C    0.97057015    0.05390015    0.98073916    0.00130000
opls_700-2    C    0.94570016    0.02459001    0.98328882    0.07890000
opls_700-3    C    0.97547983    0.97087997    0.99200885    0.00020000
opls_700-4    C    0.02950982    0.94639005    0.00392951    0.07430000
opls_700-5    C    0.05357988    0.97610022    0.00254966    0.00180000
opls_142-6    C    0.10894990    0.95439019    0.02279948    0.07020000
opls_142-7    C    0.93752024    0.10925987    0.95638875    0.06990000
opls_142-8    C    0.95353986    0.93693012    0.97035971    0.07000000
opls_145-9    C    0.91098980    0.19628007    0.02119012    0.11540000
opls_700-10    C    0.93381986    0.22757013    0.02368970    0.09200000
opls_700-11    C    0.85675988    0.21984005    0.01499054    0.08070000
opls_145-12    C    0.90293975    0.28041010    0.01400017    -0.17010000
opls_145-13    C    0.82773991    0.27308012    0.00718021    -0.17010000
opls_700-14    C    0.84932995    0.30487995    0.00560980    0.06170000
opls_145-15    C    0.19575000    0.89124014    0.98411923    0.14070000
opls_700-16    C    0.22711989    0.83717009    0.99168892    0.08860000
opls_700-17    C    0.21973995    0.92175003    0.98511935    0.07960000
opls_145-18    C    0.28005014    0.81511002    0.99937962    -0.17650000
opls_145-19    C    0.27307001    0.89727004    0.98797919    -0.16930000
opls_700-20    C    0.30476993    0.84396994    0.99396873    0.06610000
opls_145-21    C    0.89250986    0.91143001    0.01596005    0.11140000
opls_700-22    C    0.83839986    0.93438002    0.00871029    0.08920000
opls_700-23    C    0.92299006    0.85704988    0.01067017    0.08070000
opls_145-24    C    0.81623987    0.90349023    0.99392005    -0.17120000
opls_145-25    C    0.89860011    0.82808004    0.99799004    -0.17500000
opls_700-26    C    0.84523005    0.84974005    0.98982919    0.06200000
opls_700-27    C    0.81736000    0.36128002    0.00045068    0.06210000
opls_145-28    C    0.83958015    0.39238017    0.99318005    -0.16970000
opls_145-29    C    0.76361995    0.38661000    0.00093056    -0.16960000
opls_700-30    C    0.81136994    0.44564001    0.98784983    0.08540000
opls_700-31    C    0.73361008    0.43958022    0.99170979    0.09220000
opls_145-32    C    0.75716001    0.47017012    0.98670923    0.12170000
opls_700-33    C    0.36115001    0.81943992    0.99395899    0.06480000
opls_145-34    C    0.38627009    0.84805998    0.99427892    -0.17120000
opls_700-35    C    0.44576979    0.74122988    0.00401992    0.08890000
opls_700-36    C    0.43924992    0.82536986    0.00343015    0.09310000
opls_145-37    C    0.47003965    0.77124016    0.00931953    0.12160000
opls_700-38    C    0.82083016    0.81765997    0.98713904    0.06200000
opls_145-39    C    0.76749003    0.83965024    0.99540978    -0.15930000
opls_145-40    C    0.84957010    0.76389007    0.98639904    -0.16590000
opls_700-41    C    0.74283976    0.81115020    0.00410060    0.08140000
opls_700-42    C    0.82703001    0.73364007    0.99842959    0.09560000
opls_145-43    C    0.77294972    0.75687001    0.00654037    0.11350000
opls_700-44    C    0.64412982    0.63548018    0.00341067    0.07920000
opls_700-45    C    0.61341990    0.68930009    0.99156930    -0.00320000
opls_700-46    C    0.63627987    0.72024017    0.99246926    0.08080000
opls_142-47    C    0.55779987    0.71026002    0.96158961    0.07350000
opls_700-48    C    0.69027989    0.69681019    0.99261948    0.00330000
opls_142-49    C    0.71175004    0.73029007    0.96215991    0.06940000
opls_700-50    C    0.72134990    0.64332003    0.00775051    0.07960000
opls_700-51    C    0.69787989    0.61288012    0.01612001    0.00200000
opls_142-52    C    0.73129993    0.55759010    0.04510933    0.07010000
opls_148-53    C    0.88831025    0.05214989    0.97723947    -0.39370000
opls_148-54    C    0.05166007    0.05975992    0.97028877    -0.41210000
opls_148-55    C    0.05930973    0.88975019    0.03181995    -0.44470000
opls_148-56    C    0.60451011    0.77776996    0.99408975    -0.42840000
opls_148-57    C    0.77865989    0.61867988    0.00370973    -0.41070000
opls_148-58    C    0.61856994    0.60384987    0.01596979    -0.43290000
opls_145-59    C    0.39251015    0.76604005    0.99693985    -0.17010000
opls_148-60    C    0.84052983    0.47385020    0.97429895    -0.43030000
opls_148-61    C    0.47437985    0.68382984    0.01619930    -0.42960000
opls_148-62    C    0.80440988    0.99166011    0.01414066    -0.43310000
opls_148-63    C    0.20472014    0.80234997    0.99018945    -0.42820000
opls_148-64    C    0.85997986    0.67644015    0.00175958    -0.42890000
opls_148-65    C    0.67635009    0.46435011    0.98886942    -0.43230000
opls_148-66    C    0.99090991    0.20463001    0.03405942    -0.43310000
opls_148-67    C    0.82876000    0.19044996    0.02783063    -0.43020000
opls_148-68    C    0.19164002    0.97926015    0.97506955    -0.43010000
opls_148-69    C    0.46369973    0.85827000    0.00696044    -0.43020000
opls_148-70    C    0.68544000    0.84024001    0.02224030    -0.43020000
opls_148-71    C    0.98038006    0.82871989    0.03067935    -0.43020000
opls_700-72    C    0.97608987    0.97030023    0.49532910    0.07960000
opls_700-73    C    0.02983981    0.94674991    0.51041980    0.00480000
opls_700-74    C    0.05419976    0.97647024    0.50403939    0.07880000
opls_700-75    C    0.02408990    0.02991003    0.48678017    0.00050000
opls_700-76    C    0.96996998    0.05443022    0.48350025    0.07970000
opls_700-77    C    0.94638003    0.02427989    0.48388972    0.00610000
opls_142-78    C    0.89086006    0.04578007    0.45642909    0.07060000
opls_142-79    C    0.06277993    0.89164018    0.54109915    0.06830000
opls_142-80    C    0.04623999    0.06268010    0.45874923    0.06980000
opls_145-81    C    0.08818997    0.80417002    0.49034941    0.11380000
opls_700-82    C    0.06512006    0.77330993    0.50222973    0.09280000
opls_700-83    C    0.14241004    0.78009993    0.48419017    0.08140000
opls_145-84    C    0.09574999    0.72036997    0.50903021    -0.16960000
opls_145-85    C    0.17114006    0.72681007    0.48831024    -0.15940000
opls_700-86    C    0.14943971    0.69538017    0.50106966    0.06200000
opls_145-87    C    0.80368995    0.10710992    0.50639988    0.12310000
opls_700-88    C    0.77269005    0.16131013    0.50533022    0.08920000
opls_700-89    C    0.77974994    0.07669996    0.49897902    0.08110000
opls_145-90    C    0.71975002    0.18357019    0.49400907    -0.16960000
opls_145-91    C    0.72647995    0.10121000    0.49059005    -0.17300000
opls_700-92    C    0.69490005    0.15465002    0.48858983    0.06200000
opls_145-93    C    0.10764020    0.08866001    0.50428977    0.12310000
opls_700-94    C    0.16171004    0.06583012    0.49685918    0.08970000
opls_700-95    C    0.07692987    0.14305008    0.50483920    0.08040000
opls_145-96    C    0.18356995    0.09671997    0.48504006    -0.16660000
opls_145-97    C    0.10110990    0.17204007    0.49651004    -0.17020000
opls_700-98    C    0.15441989    0.15043020    0.48652006    0.06200000
opls_700-99    C    0.18155986    0.63898994    0.50506037    0.06210000
opls_145-100    C    0.16011978    0.60720019    0.51355923    -0.17500000
opls_145-101    C    0.23525014    0.61435998    0.50493935    -0.17120000
opls_700-102    C    0.18919999    0.55397991    0.52135982    0.07900000
opls_700-103    C    0.26610989    0.56154016    0.51524926    0.09570000
opls_145-104    C    0.24335999    0.53030991    0.52224030    0.11360000
opls_700-105    C    0.63847021    0.17912985    0.49171952    0.06200000
opls_145-106    C    0.61366997    0.15016002    0.48974990    -0.16970000
opls_700-107    C    0.55373985    0.25693006    0.52087993    0.08540000
opls_700-108    C    0.56090008    0.17244991    0.50605909    0.09040000
opls_145-109    C    0.52989000    0.22657997    0.51947922    0.11640000
opls_700-110    C    0.17876022    0.18260986    0.49006009    0.06200000
opls_145-111    C    0.23206008    0.16075021    0.50356924    -0.15940000
opls_145-112    C    0.15014001    0.23638016    0.49023953    -0.16280000
opls_700-113    C    0.25669998    0.18945018    0.51712012    0.08530000
opls_700-114    C    0.17270010    0.26692007    0.50687976    0.08960000
opls_145-115    C    0.22671996    0.24369022    0.51836922    0.11360000
opls_700-116    C    0.35791007    0.36305019    0.48205920    0.07960000
opls_700-117    C    0.38729015    0.30887987    0.48372976    0.00200000
opls_700-118    C    0.36314004    0.27921999    0.48730040    0.07960000
opls_142-119    C    0.44326996    0.28569997    0.46254938    0.07100000
opls_700-120    C    0.30903996    0.30384010    0.48384939    -0.00320000
opls_142-121    C    0.28633004    0.27023020    0.46143938    0.07350000
opls_700-122    C    0.27930989    0.35775001    0.48202025    0.07930000
opls_700-123    C    0.30407001    0.38717994    0.48034969    -0.00310000
opls_142-124    C    0.27081000    0.44298991    0.45931953    0.07110000
opls_148-125    C    0.11151991    0.95098990    0.50285985    -0.44490000
opls_148-126    C    0.94843975    0.94064005    0.50420909    -0.40030000
opls_148-127    C    0.93981027    0.11184987    0.47943999    -0.39870000
opls_148-128    C    0.39392987    0.22170013    0.49255967    -0.42840000
opls_148-129    C    0.22181002    0.38505008    0.48246954    -0.42630000
opls_148-130    C    0.38517003    0.39334996    0.48231931    -0.42840000
opls_145-131    C    0.60691008    0.23254986    0.50744033    -0.17300000
opls_148-132    C    0.16115002    0.52477991    0.53885968    -0.43030000
opls_148-133    C    0.52474990    0.31442007    0.54816948    -0.43010000
opls_148-134    C    0.19580023    0.00869995    0.50198909    -0.43180000
opls_148-135    C    0.79630005    0.19501005    0.51724949    -0.42070000
opls_148-136    C    0.13977996    0.32425016    0.51250904    -0.43230000
opls_148-137    C    0.32328989    0.53792991    0.51659016    -0.43020000
opls_148-138    C    0.00793990    0.79729007    0.50930006    -0.43480000
opls_148-139    C    0.17076971    0.80890019    0.46508930    -0.43020000
opls_148-140    C    0.80869012    0.01934996    0.51431035    -0.42980000
opls_148-141    C    0.53709024    0.13905987    0.50792995    -0.43000000
opls_148-142    C    0.31397000    0.16097009    0.54129945    -0.42960000
opls_148-143    C    0.01965006    0.17142006    0.52813943    -0.42960000
opls_144-144    H    0.11979968    0.98000007    0.09751989    0.08710000
opls_144-145    H    0.90634984    0.11956021    0.85495883    0.06710000
opls_144-146    H    0.97565995    0.90329023    0.87704891    0.06840000
opls_146-147    H    0.92211000    0.30290003    0.01636065    0.10680000
opls_146-148    H    0.78628980    0.28996019    0.00500056    0.10630000
opls_146-149    H    0.30236983    0.77360027    0.00782006    0.10600000
opls_146-150    H    0.29006000    0.92168021    0.98383965    0.10590000
opls_146-151    H    0.77461991    0.92276023    0.98872893    0.10670000
opls_146-152    H    0.92303990    0.78660006    0.99911951    0.10670000
opls_146-153    H    0.88105005    0.37486025    0.98938964    0.10680000
opls_146-154    H    0.74385980    0.36479000    0.00607022    0.10590000
opls_146-155    H    0.36425983    0.88971017    0.99106994    0.10620000
opls_146-156    H    0.74325002    0.88119007    0.99920993    0.10570000
opls_146-157    H    0.89117015    0.74431992    0.98065988    0.10590000
opls_144-158    H    0.54852004    0.68746000    0.86051995    0.06210000
opls_144-159    H    0.68946994    0.76122991    0.86585016    0.06270000
opls_144-160    H    0.76234014    0.54793987    0.14719997    0.06260000
opls_146-161    H    0.37523995    0.74181001    0.99646970    0.10590000
opls_144-162    H    0.88099007    0.02310998    0.35751961    0.06510000
opls_144-163    H    0.09483987    0.88232007    0.63763006    0.06510000
opls_144-164    H    0.02377994    0.09445006    0.36644967    0.06870000
opls_146-165    H    0.07644008    0.69824999    0.51944027    0.10590000
opls_146-166    H    0.21251000    0.70961020    0.47916041    0.10600000
opls_146-167    H    0.69748998    0.22524990    0.49371975    0.10670000
opls_146-168    H    0.70940996    0.07679999    0.49017971    0.10550000
opls_146-169    H    0.22516006    0.07751008    0.47906999    0.10670000
opls_146-170    H    0.07663007    0.21356984    0.50324932    0.10630000
opls_146-171    H    0.11868007    0.62410005    0.51638986    0.10620000
opls_146-172    H    0.25442977    0.63674012    0.49957993    0.10580000
opls_146-173    H    0.63590004    0.10847999    0.47916041    0.10590000
opls_146-174    H    0.25624008    0.11929998    0.50777973    0.10590000
opls_146-175    H    0.10855998    0.25584003    0.48062928    0.10620000
opls_144-176    H    0.45447996    0.30454986    0.36109025    0.06100000
opls_144-177    H    0.30590011    0.23847984    0.35729984    0.06130000
opls_144-178    H    0.23986007    0.45328008    0.35614950    0.06290000
opls_146-179    H    0.62394004    0.25704018    0.51384994    0.10620000
opls_702-180    H    0.40244014    0.20388994    0.35094030    0.13520000
opls_702-181    H    0.37335017    0.20639992    0.56479998    0.13330000
opls_702-182    H    0.43040006    0.20968011    0.56316975    0.13320000
opls_702-183    H    0.20780005    0.35834004    0.49497023    0.11090000
opls_702-184    H    0.20560016    0.40683994    0.35588939    0.12260000
opls_702-185    H    0.20669010    0.41284006    0.60089996    0.12100000
opls_702-186    H    0.40374998    0.38899014    0.34756997    0.12380000
opls_702-187    H    0.41537013    0.37992000    0.58858983    0.12410000
opls_702-188    H    0.35879998    0.43391006    0.51199021    0.11450000
opls_702-189    H    0.56656987    0.79054998    0.04966895    0.12000000
opls_702-190    H    0.59978975    0.79267022    0.85359011    0.12450000
opls_702-191    H    0.62261998    0.79514006    0.08076003    0.12660000
opls_702-192    H    0.79045983    0.63457991    0.89381016    0.12410000
opls_702-193    H    0.79730991    0.57725001    0.97860958    0.14100000
opls_702-194    H    0.79354993    0.62686985    0.13377984    0.12220000
opls_702-195    H    0.64158993    0.57005010    0.09772993    0.13420000
opls_702-196    H    0.61398984    0.58919006    0.87805041    0.12550000
opls_702-197    H    0.58075006    0.62614999    0.07974044    0.12710000
opls_702-198    H    0.06952992    0.86723007    0.89920019    0.12720000
opls_702-199    H    0.03782977    0.87761022    0.11537028    0.13420000
opls_702-200    H    0.09541988    0.87925989    0.10303928    0.13030000
opls_702-201    H    0.87380999    0.02560021    0.97970011    0.11130000
opls_702-202    H    0.87345001    0.07520007    0.85306015    0.12440000
opls_702-203    H    0.87246018    0.07864017    0.09902910    0.12440000
opls_702-204    H    0.07870000    0.04382018    0.85380014    0.12180000
opls_702-205    H    0.07360996    0.05868022    0.09628888    0.12550000
opls_702-206    H    0.02494028    0.10001992    0.94675903    0.11580000
opls_702-207    H    0.97386002    0.90137987    0.54436933    0.11580000
opls_702-208    H    0.93246991    0.93838015    0.36697964    0.13030000
opls_702-209    H    0.91632981    0.95957021    0.60168030    0.12690000
opls_702-210    H    0.12420000    0.96648991    0.39466978    0.12720000
opls_702-211    H    0.12990982    0.90963001    0.47785985    0.13410000
opls_702-212    H    0.12622979    0.95847011    0.63437935    0.12540000
opls_702-213    H    0.89913991    0.12619005    0.49842959    0.11090000
opls_702-214    H    0.94549996    0.12556996    0.34799978    0.12150000
opls_702-215    H    0.95241991    0.12891014    0.59199911    0.12290000
opls_702-216    H    0.20367002    0.99034013    0.36173010    0.12790000
opls_702-217    H    0.17800011    0.99137999    0.57943026    0.12580000
opls_702-218    H    0.23288009    0.99890001    0.56559005    0.12010000
opls_702-219    H    0.81434980    0.19431019    0.38594002    0.12440000
opls_702-220    H    0.82656011    0.18229003    0.62306933    0.12530000
opls_702-221    H    0.76733002    0.23491988    0.55101958    0.12490000
opls_702-222    H    0.09935003    0.33572014    0.52797947    0.12570000
opls_702-223    H    0.14354997    0.34077995    0.38483002    0.12550000
opls_702-224    H    0.15107989    0.34147011    0.62886969    0.12500000
opls_702-225    H    0.33990984    0.51961010    0.38052913    0.12870000
opls_702-226    H    0.34083015    0.50802003    0.61934012    0.12180000
opls_702-227    H    0.33415989    0.56713008    0.54927947    0.12440000
opls_702-228    H    0.99679012    0.76785995    0.51299032    0.12480000
opls_702-229    H    0.98954995    0.82083015    0.38891949    0.12570000
opls_702-230    H    0.99146000    0.82305003    0.63226924    0.12220000
opls_702-231    H    0.56625001    0.09910993    0.53065988    0.12440000
opls_702-232    H    0.51741985    0.14007007    0.37579981    0.12200000
opls_702-233    H    0.50816008    0.15226007    0.61786012    0.12120000
opls_702-234    H    0.76579981    0.00261020    0.06048935    0.12520000
opls_702-235    H    0.80073983    0.00734014    0.87619067    0.12500000
opls_702-236    H    0.81971995    0.01067001    0.10677961    0.12760000
opls_702-237    H    0.85773995    0.65784011    0.86919963    0.12260000
opls_702-238    H    0.84718985    0.66099988    0.11026957    0.12170000
opls_702-239    H    0.90016998    0.66532009    0.02639932    0.12480000
opls_702-240    H    0.23062989    0.76689019    0.06057976    0.12110000
opls_702-241    H    0.19930993    0.79124018    0.84723891    0.12460000
opls_702-242    H    0.16740001    0.82004996    0.05761976    0.12700000
opls_702-243    H    0.48692976    0.85121000    0.88214961    0.12450000
opls_702-244    H    0.48954992    0.85000996    0.12708924    0.12400000
opls_702-245    H    0.43449995    0.89904006    0.01470956    0.12010000
opls_702-246    H    0.66458997    0.43529002    0.97724921    0.12440000
opls_702-247    H    0.66000009    0.49007010    0.87211929    0.12460000
opls_702-248    H    0.65918011    0.48801020    0.11621877    0.12790000
opls_702-249    H    0.00811995    0.19514001    0.89475046    0.12400000
opls_702-250    H    0.00895998    0.16894020    0.10893980    0.12760000
opls_702-251    H    0.00102986    0.23161010    0.10311022    0.12510000
opls_702-252    H    0.18027009    0.49380988    0.63692900    0.12220000
opls_702-253    H    0.15795973    0.50715021    0.40554999    0.12460000
opls_702-254    H    0.12210008    0.55070996    0.58877900    0.12510000
opls_702-255    H    0.49386003    0.32717009    0.65000974    0.12220000
opls_702-256    H    0.50718009    0.33403006    0.41883937    0.12620000
opls_702-257    H    0.55073006    0.32795018    0.59858955    0.12410000
opls_702-258    H    0.15252992    0.83888009    0.36289991    0.12290000
opls_702-259    H    0.21009992    0.78264002    0.41893952    0.12450000
opls_702-260    H    0.17307000    0.82774022    0.59652952    0.12260000
opls_702-261    H    0.82798006    0.99858989    0.38514021    0.12490000
opls_702-262    H    0.78248019    0.00583009    0.55036026    0.12480000
opls_702-263    H    0.83844995    0.00744011    0.62224030    0.12160000
opls_702-264    H    0.33437016    0.15803992    0.41289991    0.12440000
opls_702-265    H    0.32701014    0.12177016    0.58273939    0.12490000
opls_702-266    H    0.32616004    0.17967006    0.64910978    0.12160000
opls_702-267    H    0.00769007    0.15362023    0.63044010    0.12170000
opls_702-268    H    0.99894003    0.17283003    0.39877038    0.12180000
opls_702-269    H    0.00622997    0.21121992    0.57573026    0.12510000
opls_702-270    H    0.67224978    0.82360991    0.12480944    0.12220000
opls_702-271    H    0.66588970    0.84098020    0.89022979    0.12480000
opls_702-272    H    0.67231986    0.88018991    0.06677934    0.12410000
opls_702-273    H    0.00028993    0.82564992    0.90104045    0.12160000
opls_702-274    H    0.99392978    0.78947993    0.07272993    0.12450000
opls_702-275    H    0.99333976    0.84741006    0.13551995    0.12420000
opls_702-276    H    0.49281971    0.66394014    0.88440995    0.12440000
opls_702-277    H    0.44796012    0.67055987    0.05232015    0.12410000
opls_702-278    H    0.50447998    0.67112985    0.12311940    0.12090000
opls_702-279    H    0.17306976    0.99896026    0.10680882    0.12130000
opls_702-280    H    0.16153011    0.99333997    0.86827881    0.12330000
opls_702-281    H    0.21855977    0.99222019    0.94277945    0.12490000
opls_702-282    H    0.84242993    0.49206014    0.10810939    0.12480000
opls_702-283    H    0.82327025    0.50402990    0.87242948    0.12110000
opls_702-284    H    0.88006018    0.44705006    0.93151950    0.12490000
opls_702-285    H    0.84757014    0.15929982    0.12527959    0.12330000
opls_702-286    H    0.82624994    0.17264013    0.89424971    0.12220000
opls_702-287    H    0.78941004    0.21608997    0.07526011    0.12490000
opls_750-288    N    0.14321010    0.90936995    0.96261893    -0.29380000
opls_750-289    N    0.94405979    0.14385008    0.04311050    -0.28090000
opls_750-290    N    0.91160991    0.94508000    0.04404941    -0.29200000
opls_750-291    N    0.52244980    0.75204001    0.03816002    -0.28000000
opls_750-292    N    0.75384005    0.72399000    0.03449062    -0.28630000
opls_750-293    N    0.72450994    0.52262024    0.96316002    -0.27920000
opls_750-294    N    0.85611991    0.08789017    0.53410950    -0.28560000
opls_750-295    N    0.05500001    0.85644006    0.46656930    -0.28660000
opls_750-296    N    0.08891009    0.05537001    0.52962917    -0.27880000
opls_750-297    N    0.47742984    0.24629018    0.54645997    -0.28090000
opls_750-298    N    0.24650999    0.27683010    0.54652952    -0.28390000
opls_750-299    N    0.27659989    0.47793019    0.54635008    -0.27920000
