#======================================================================
# Crystal Data Generated By AuToFF
#----------------------------------------------------------------------

data_AuToFF_phase_1

_cell_length_a                         24.5000
_cell_length_b                         24.1000
_cell_length_c                         4.3000
_cell_angle_alpha                      90.00
_cell_angle_beta                       91.00
_cell_angle_gamma                      90.00
_symmetry_space_group_name_H-M_alt     'P 1'
_symmetry_space_group_IT_number        1

loop_
_space_group_symop_operation_xyz
   'x, y, z'

loop_
   _atom_site_label
   _atom_site_type_symbol
   _atom_site_fract_x
   _atom_site_fract_y
   _atom_site_fract_z
   _atom_site_charge
opls_145-0    C    0.59134024    0.59702988    0.64857944    -0.07820000
opls_700-1    C    0.53725031    0.61247012    0.70169909    0.04330000
opls_700-2    C    0.49608020    0.57142988    0.70412969    0.04090000
opls_700-3    C    0.50859007    0.51686017    0.60955028    0.02060000
opls_700-4    C    0.56308013    0.50247012    0.53741845    0.03230000
opls_700-5    C    0.60520997    0.54230996    0.57514043    0.03840000
opls_700-6    C    0.46638019    0.47670000    0.58513961    0.02060000
opls_700-7    C    0.47891024    0.42209004    0.49141847    0.04050000
opls_145-8    C    0.53230013    0.40987012    0.39777873    -0.08960000
opls_145-9    C    0.57360019    0.44916017    0.42178004    -0.08800000
opls_145-10    C    0.44271022    0.58359004    0.79853931    -0.08960000
opls_145-11    C    0.40136998    0.54436017    0.77340993    -0.08800000
opls_700-12    C    0.41189001    0.49110000    0.65709933    0.03990000
opls_700-13    C    0.36974020    0.45130000    0.61911917    0.03800000
opls_145-14    C    0.38362020    0.39656017    0.54636864    -0.07820000
opls_700-15    C    0.43774025    0.38105021    0.49441892    0.04080000
opls_700-16    C    0.45081029    0.32115021    0.48503844    0.07680000
opls_700-17    C    0.31080025    0.46531992    0.64112017    0.08500000
opls_700-18    C    0.66416009    0.52830996    0.55286032    0.08530000
opls_700-19    C    0.52417000    0.67232988    0.71558957    0.07650000
opls_145-20    C    0.41902024    0.28410996    0.30560899    -0.07180000
opls_145-21    C    0.42891996    0.22710996    0.32283950    -0.12900000
opls_145-22    C    0.47104995    0.20672988    0.51996930    0.24510000
opls_145-23    C    0.50324003    0.24379004    0.69234884    -0.10600000
opls_145-24    C    0.49269009    0.30029004    0.67990975    -0.08810000
opls_145-25    C    0.28861025    0.50912988    0.46383988    -0.07180000
opls_145-26    C    0.23250995    0.51920000    0.46000907    -0.10680000
opls_145-27    C    0.19720010    0.48529004    0.62814844    0.23610000
opls_145-28    C    0.21935004    0.44173983    0.81033877    -0.12900000
opls_145-29    C    0.27565028    0.43199004    0.81627920    -0.07390000
opls_145-30    C    0.68639010    0.48454979    0.73028016    -0.07180000
opls_145-31    C    0.74248007    0.47442988    0.73326898    -0.10680000
opls_145-32    C    0.77773005    0.50821992    0.56410853    0.23490000
opls_145-33    C    0.75555997    0.55186017    0.38266947    -0.12900000
opls_145-34    C    0.69927007    0.56164979    0.37743845    -0.07390000
opls_145-35    C    0.55570014    0.70889004    0.89957784    -0.07170000
opls_145-36    C    0.54506035    0.76581992    0.89151849    -0.12890000
opls_145-37    C    0.50242002    0.78657012    0.69940805    0.24730000
opls_145-38    C    0.47086992    0.74999004    0.51995999    -0.10600000
opls_145-39    C    0.48215008    0.69360000    0.52320932    -0.08800000
opls_142-40    C    0.10012015    0.46766017    0.71996930    0.01690000
opls_142-41    C    0.87473017    0.52477012    0.46407945    0.01690000
opls_142-42    C    0.51655004    0.88570000    0.79101957    0.01690000
opls_142-43    C    0.45342013    0.10755021    0.45866933    0.01690000
opls_700-44    C    0.49951003    0.94236017    0.71107028    0.06610000
opls_700-45    C    0.93224001    0.50961992    0.52964983    0.08280000
opls_700-46    C    0.04262996    0.48286017    0.65455011    0.08280000
opls_700-47    C    0.46971993    0.05096017    0.54508007    0.06620000
opls_145-48    C    0.52981014    0.98731992    0.82662961    -0.08810000
opls_145-49    C    0.45397012    0.95207012    0.51309849    -0.07170000
opls_145-50    C    0.94604018    0.46430996    0.72250922    -0.07370000
opls_145-51    C    0.97411004    0.54137012    0.40007908    -0.07180000
opls_145-52    C    0.43922012    0.00601992    0.43121867    -0.08790000
opls_145-53    C    0.51510023    0.04128008    0.74437996    -0.07380000
opls_145-54    C    0.02882024    0.52819004    0.46176980    -0.07370000
opls_145-55    C    0.00075027    0.45108008    0.78389989    -0.07180000
opls_750-56    N    0.48179016    0.14901992    0.56440857    -0.23140000
opls_750-57    N    0.13956013    0.49582988    0.59737867    -0.26270000
opls_750-58    N    0.49048997    0.84428008    0.66667985    -0.23140000
opls_750-59    N    0.83536000    0.49758008    0.59373859    -0.26280000
opls_146-60    H    0.62525998    0.62932988    0.66474932    0.05120000
opls_146-61    H    0.54223007    0.36712988    0.30028958    0.05120000
opls_146-62    H    0.61671987    0.43829004    0.34705944    0.05130000
opls_146-63    H    0.43283037    0.62622988    0.89758917    0.05120000
opls_146-64    H    0.35824008    0.55524979    0.84772814    0.05120000
opls_146-65    H    0.35050030    0.36343983    0.52827986    0.05120000
opls_146-66    H    0.38511984    0.30060000    0.14584995    0.05120000
opls_146-67    H    0.40300994    0.19711992    0.17792922    0.05120000
opls_146-68    H    0.53839018    0.22765021    0.84422994    0.05120000
opls_146-69    H    0.51827026    0.32989004    0.82919976    0.05120000
opls_146-70    H    0.31649993    0.53678008    0.32163001    0.05120000
opls_146-71    H    0.21502022    0.55531992    0.31905986    0.05120000
opls_146-72    H    0.19132033    0.41436017    0.95333946    0.05120000
opls_146-73    H    0.29333017    0.39680996    0.96387826    0.05120000
opls_146-74    H    0.65853998    0.45699004    0.87327852    0.05120000
opls_146-75    H    0.76000998    0.43835021    0.87440892    0.05120000
opls_146-76    H    0.78356007    0.57927012    0.23972926    0.05130000
opls_146-77    H    0.68155995    0.59686017    0.23023015    0.05120000
opls_146-78    H    0.43564014    0.76642988    0.36980009    0.05120000
opls_146-79    H    0.45708018    0.66443983    0.36847896    0.05120000
opls_144-80    H    0.11011033    0.43102988    0.87878865    0.03020000
opls_144-81    H    0.86469002    0.56049004    0.29894054    0.03020000
opls_144-82    H    0.55222009    0.87866017    0.96018933    0.03020000
opls_144-83    H    0.41622987    0.11456017    0.30048961    0.03020000
opls_146-84    H    0.56649025    0.97977012    0.98788887    0.05120000
opls_146-85    H    0.42900020    0.91564979    0.41911917    0.05120000
opls_146-86    H    0.91250026    0.43812988    0.82979985    0.05120000
opls_146-87    H    0.96362010    0.57816017    0.24346936    0.05120000
opls_146-88    H    0.40232985    0.01357012    0.27156896    0.05130000
opls_146-89    H    0.53997035    0.07771992    0.83908963    0.05120000
opls_146-90    H    0.06235994    0.55442988    0.35480945    0.05120000
opls_146-91    H    0.01123026    0.41422988    0.94005838    0.05120000
opls_146-92    H    0.58998024    0.69207012    0.05550839    0.05120000
opls_146-93    H    0.57078012    0.79543983    0.03987812    0.05120000
