#======================================================================
# Crystal Data Generated By AuToFF
#----------------------------------------------------------------------

data_AuToFF_phase_1

_cell_length_a                         44.8000
_cell_length_b                         44.8000
_cell_length_c                         7.3000
_cell_angle_alpha                      90.00
_cell_angle_beta                       90.00
_cell_angle_gamma                      120.00
_symmetry_space_group_name_H-M_alt     'P 1'
_symmetry_space_group_IT_number        1

loop_
_space_group_symop_operation_xyz
   'x, y, z'

loop_
   _atom_site_label
   _atom_site_type_symbol
   _atom_site_fract_x
   _atom_site_fract_y
   _atom_site_fract_z
   _atom_site_charge
opls_700-0    C    0.42237001    0.21991992    0.25780959    0.03650000
opls_523-1    C    0.41080994    0.18501987    0.22779041    -0.13340000
opls_522-2    C    0.37579992    0.16144001    0.22422055    -0.16870000
opls_521-3    C    0.35197005    0.17287000    0.24240000    0.13210000
opls_521-4    C    0.39752995    0.22992999    0.28945068    0.06220000
opls_521-5    C    0.31476005    0.15047010    0.21404932    0.12680000
opls_522-6    C    0.29991002    0.11564995    0.16560000    -0.19010000
opls_141-7    C    0.45979003    0.24583006    0.24353973    -0.00200000
opls_523-8    C    0.26437005    0.09514010    0.16170000    -0.13260000
opls_700-9    C    0.24318987    0.10806991    0.22029041    0.03750000
opls_521-10    C    0.25994001    0.14295012    0.27714932    0.03970000
opls_141-11    C    0.20445987    0.08505993    0.21900959    0.00540000
opls_142-12    C    0.30503009    0.26006999    0.19706027    -0.12780000
opls_142-13    C    0.29197993    0.24820003    0.36860000    -0.14300000
opls_142-14    C    0.26754008    0.21433999    0.35237945    -0.14340000
opls_142-15    C    0.26565998    0.20586995    0.16936986    -0.12860000
opls_137-16    C    0.29095012    0.23331007    0.07796986    -0.21140000
opls_423-17    C    0.46952995    0.27855989    0.15810959    0.23060000
opls_700-18    C    0.52147996    0.25943001    0.26985068    0.09430000
opls_142-19    C    0.48380001    0.23797011    0.29824932    -0.15510000
opls_142-20    C    0.18256003    0.09687989    0.25563973    -0.09980000
opls_700-21    C    0.14421001    0.07599012    0.24852055    0.10610000
opls_423-22    C    0.19070015    0.04976012    0.15950959    0.22510000
opls_145-23    C    0.53970994    0.24326987    0.21210000    -0.12120000
opls_523-24    C    0.57560000    0.26187009    0.19593014    -0.12310000
opls_700-25    C    0.59405996    0.29714000    0.23896986    0.00110000
opls_523-26    C    0.57581000    0.31334009    0.29687945    -0.12310000
opls_145-27    C    0.53987987    0.29469992    0.31266986    -0.12120000
opls_145-28    C    0.12568000    0.09133990    0.18186027    -0.12130000
opls_523-29    C    0.08968995    0.07264999    0.17259041    -0.12310000
opls_700-30    C    0.07140992    0.03816002    0.23002055    0.00040000
opls_523-31    C    0.08981994    0.02293988    0.30016027    -0.12180000
opls_145-32    C    0.12571001    0.04189011    0.31310000    -0.12080000
opls_531-33    C    0.63225995    0.31644000    0.23103973    0.32550000
opls_531-34    C    0.03326994    0.01823989    0.22046027    0.32660000
opls_700-35    C    0.78041000    0.20164009    0.24573014    0.03900000
opls_523-36    C    0.81570996    0.22444001    0.27476027    -0.14200000
opls_522-37    C    0.83756993    0.21208987    0.32116986    -0.17800000
opls_521-38    C    0.82473988    0.17661994    0.33185068    0.14130000
opls_521-39    C    0.76852000    0.16591010    0.25933014    0.03640000
opls_521-40    C    0.84713004    0.16141991    0.34010000    0.16110000
opls_522-41    C    0.88316009    0.18158000    0.34957945    -0.19150000
opls_141-42    C    0.75618005    0.21466011    0.20112055    -0.00490000
opls_523-43    C    0.90312003    0.16709006    0.30467945    -0.08180000
opls_700-44    C    0.88757002    0.13321996    0.24116027    0.03260000
opls_521-45    C    0.85120999    0.11426998    0.22990000    0.04750000
opls_141-46    C    0.90958999    0.11820988    0.19263973    0.05750000
opls_142-47    C    0.74147000    0.04496991    0.45536027    -0.14260000
opls_142-48    C    0.77357998    0.05660996    0.52372055    -0.14310000
opls_142-49    C    0.79369003    0.05685998    0.38434932    -0.12840000
opls_137-50    C    0.77535004    0.04990007    0.22340000    -0.20750000
opls_137-51    C    0.74247003    0.04129987    0.26923014    -0.12860000
opls_423-52    C    0.72381991    0.19160992    0.11296027    0.22510000
opls_700-53    C    0.74194989    0.26266987    0.21612055    0.12280000
opls_142-54    C    0.76389999    0.24702007    0.24603014    -0.15260000
opls_142-55    C    0.89950999    0.08514988    0.23390000    -0.13340000
opls_700-56    C    0.92122000    0.06889000    0.21580959    0.12330000
MOF2_C_3-57    C    0.94306004    0.14082990    0.11306986    -0.06240000
opls_145-58    C    0.75816990    0.29767998    0.16946027    -0.12180000
opls_523-59    C    0.73953000    0.31498992    0.16449041    -0.12080000
opls_700-60    C    0.70421990    0.29767998    0.20734932    -0.00220000
opls_523-61    C    0.68777010    0.26245002    0.24980000    -0.12200000
opls_145-62    C    0.70649995    0.24519008    0.25643973    -0.12180000
opls_145-63    C    0.90564989    0.03418996    0.16379041    -0.12000000
opls_523-64    C    0.92479014    0.01734010    0.15815068    -0.13190000
opls_700-65    C    0.95988005    0.03481010    0.20603014    -0.00260000
opls_523-66    C    0.97542013    0.06945008    0.25959041    -0.12180000
opls_145-67    C    0.95616995    0.08610998    0.26723973    -0.12010000
opls_531-68    C    0.68503998    0.31657995    0.21589041    0.34240000
opls_531-69    C    0.97983007    0.01666996    0.20816027    0.34330000
opls_700-70    C    0.79954008    0.57838999    0.23914932    0.03900000
opls_523-71    C    0.77544013    0.58979008    0.24742055    -0.11290000
opls_522-72    C    0.78631000    0.62469992    0.24594932    -0.19100000
opls_521-73    C    0.82158991    0.64862000    0.23697945    0.13210000
opls_521-74    C    0.83460997    0.60361993    0.21457945    0.03650000
opls_521-75    C    0.83589992    0.68589002    0.25257945    0.16110000
opls_522-76    C    0.81552995    0.70040007    0.30017945    -0.19420000
opls_141-77    C    0.78821991    0.54073000    0.24453014    -0.00540000
opls_523-78    C    0.82968991    0.73576999    0.29310000    -0.09490000
opls_700-79    C    0.86317989    0.75639995    0.22796986    0.02670000
opls_521-80    C    0.88238008    0.74051999    0.17843973    0.04040000
opls_141-81    C    0.87757986    0.79414990    0.21136027    -0.00240000
opls_142-82    C    0.95704002    0.69720995    0.23730959    -0.12790000
opls_137-83    C    0.94716985    0.71337989    0.35990000    -0.21140000
opls_142-84    C    0.94206001    0.73649993    0.26479041    -0.12860000
opls_137-85    C    0.94418991    0.73124991    0.07972055    -0.14370000
opls_137-86    C    0.95353990    0.70674989    0.06370000    -0.14270000
opls_423-87    C    0.81125002    0.52975003    0.17287945    0.22510000
opls_700-88    C    0.73992007    0.47947004    0.28923014    0.12190000
opls_142-89    C    0.75684995    0.51736999    0.31023973    -0.15260000
opls_142-90    C    0.91061988    0.81617993    0.25812055    -0.14640000
opls_700-91    C    0.92794988    0.85428994    0.25023014    0.12280000
opls_423-92    C    0.85493002    0.80606986    0.14576027    0.22540000
opls_145-93    C    0.70512992    0.46165003    0.23646986    -0.12130000
opls_523-94    C    0.68736001    0.42584993    0.22050959    -0.12120000
opls_700-95    C    0.70401984    0.40702986    0.25842055    0.00060000
opls_523-96    C    0.73874995    0.42479008    0.31322055    -0.13310000
opls_145-97    C    0.75644998    0.46067987    0.33030959    -0.12190000
opls_145-98    C    0.96258992    0.87277984    0.19513014    -0.12080000
opls_523-99    C    0.97993986    0.90866989    0.18606027    -0.12080000
opls_700-100    C    0.96306997    0.92686003    0.23310000    -0.00200000
opls_523-101    C    0.92864008    0.90843998    0.29255068    -0.12180000
opls_145-102    C    0.91149985    0.87258988    0.30446027    -0.12010000
opls_531-103    C    0.68501998    0.36903995    0.24237945    0.32290000
opls_531-104    C    0.98132999    0.96488989    0.22297945    0.33940000
opls_700-105    C    0.24503998    0.11270006    0.71962055    0.03980000
opls_523-106    C    0.25732985    0.14829988    0.72903973    -0.13560000
opls_522-107    C    0.29231008    0.17132997    0.74442055    -0.17430000
opls_521-108    C    0.31556994    0.15908989    0.74933014    0.12230000
opls_521-109    C    0.26981004    0.10190000    0.70996027    0.04310000
opls_521-110    C    0.35269001    0.18155010    0.77485068    0.13380000
opls_522-111    C    0.36735988    0.21635994    0.82310959    -0.19440000
opls_141-112    C    0.20701004    0.08714999    0.71329041    -0.00400000
opls_523-113    C    0.40273995    0.23749998    0.81379041    -0.17720000
opls_700-114    C    0.42311989    0.22462997    0.74523014    0.02540000
opls_521-115    C    0.40703015    0.18952011    0.69757945    0.06070000
opls_141-116    C    0.46078004    0.24796007    0.72340000    -0.00080000
opls_142-117    C    0.36530994    0.07323997    0.79450959    -0.14300000
opls_137-118    C    0.38160990    0.10093990    0.90643014    -0.14290000
opls_142-119    C    0.40433987    0.12776993    0.80186986    -0.14320000
opls_137-120    C    0.39866007    0.11787997    0.62023973    -0.14340000
opls_137-121    C    0.37458005    0.08376991    0.61682055    -0.14270000
opls_423-122    C    0.19599006    0.05313993    0.64233973    0.22510000
opls_700-123    C    0.14551008    0.07437998    0.75106986    0.12270000
opls_142-124    C    0.18347005    0.09564992    0.77087945    -0.15810000
opls_142-125    C    0.48311995    0.23708991    0.76620959    -0.13510000
opls_700-126    C    0.52128985    0.25801988    0.75430000    0.12310000
opls_423-127    C    0.47225995    0.28228999    0.65623014    0.23060000
opls_145-128    C    0.12723992    0.09082003    0.69723014    -0.12830000
opls_145-129    C    0.09126997    0.07246003    0.68627945    -0.12830000
opls_700-130    C    0.07276995    0.03728007    0.73083973    0.00050000
opls_145-131    C    0.09101008    0.02087997    0.78620959    -0.18690000
opls_145-132    C    0.12699990    0.03928997    0.79756986    -0.12180000
opls_145-133    C    0.53978993    0.24189996    0.69966027    -0.12310000
opls_523-134    C    0.57583010    0.26044012    0.69159041    -0.13050000
opls_700-135    C    0.59411002    0.29542986    0.73980959    0.00030000
opls_523-136    C    0.57559009    0.31141009    0.79735068    -0.12200000
opls_145-137    C    0.53965996    0.29276993    0.80759041    -0.12180000
opls_141-138    C    0.03461995    0.01788007    0.72220000    0.32290000
opls_531-139    C    0.63223995    0.31522009    0.73252055    0.34310000
opls_700-140    C    0.88617001    0.13231012    0.75080959    0.03900000
opls_523-141    C    0.85085988    0.10950994    0.77857945    -0.13540000
opls_522-142    C    0.82877011    0.12172012    0.82242055    -0.19150000
opls_521-143    C    0.84149011    0.15724005    0.83163014    0.13110000
opls_521-144    C    0.89790999    0.16799990    0.76283973    0.03970000
opls_521-145    C    0.81901010    0.17233003    0.83759041    0.15820000
opls_522-146    C    0.78296008    0.15202998    0.84723973    -0.16470000
opls_141-147    C    0.91051011    0.11933005    0.70777945    -0.00520000
opls_523-148    C    0.76286008    0.16640007    0.80260959    -0.08630000
opls_700-149    C    0.77830997    0.20026012    0.73859041    0.03520000
opls_521-150    C    0.81462993    0.21932994    0.72753973    0.04840000
opls_141-151    C    0.75619000    0.21510008    0.68816986    -0.00200000
opls_142-152    C    0.92523992    0.28977002    0.94494932    -0.12780000
opls_137-153    C    0.89359010    0.27781011    0.02026027    -0.14310000
opls_142-154    C    0.87218995    0.27654999    0.88500959    -0.12860000
opls_137-155    C    0.88937995    0.28315008    0.72009041    -0.19310000
opls_137-156    C    0.92266999    0.29211989    0.75886027    -0.19310000
opls_423-157    C    0.94282994    0.14235988    0.61937945    0.22510000
opls_700-158    C    0.92455008    0.07113007    0.72212055    0.12310000
opls_142-159    C    0.90278995    0.08697008    0.75333014    -0.15360000
opls_142-160    C    0.76599008    0.24813998    0.72863973    -0.13510000
opls_700-161    C    0.74407015    0.26425011    0.71072055    0.10670000
opls_423-162    C    0.72303010    0.19229011    0.60603973    0.22510000
opls_142-163    C    0.90819001    0.03613001    0.67416986    -0.17430000
opls_142-164    C    0.92683994    0.01879997    0.66473014    0.01410000
opls_713-165    C    0.96227015    0.03610011    0.70496027    0.06840000
opls_142-166    C    0.97871000    0.07119991    0.75147945    -0.17270000
opls_142-167    C    0.96003005    0.08846011    0.76139041    -0.12200000
opls_145-168    C    0.75964003    0.29913006    0.66233973    -0.12310000
opls_523-169    C    0.74055994    0.31606987    0.66173014    -0.13160000
opls_700-170    C    0.70546991    0.29845992    0.70970959    0.00060000
opls_523-171    C    0.68982995    0.26350007    0.75772055    -0.12970000
opls_145-172    C    0.70904999    0.24677006    0.76090000    -0.12010000
opls_141-173    C    0.98163990    0.01729989    0.70722055    0.21170000
opls_531-174    C    0.68561008    0.31670006    0.71763973    0.32670000
opls_700-175    C    0.86869995    0.75532000    0.73532055    0.03010000
opls_523-176    C    0.89200004    0.74420008    0.69026986    -0.13680000
opls_522-177    C    0.88105013    0.70941009    0.68230959    -0.16870000
opls_521-178    C    0.84616999    0.68523999    0.71185068    0.13210000
opls_521-179    C    0.83426991    0.73020990    0.77432055    0.06200000
opls_521-180    C    0.83203007    0.64796997    0.69710000    0.14850000
opls_522-181    C    0.85218989    0.63311995    0.65360959    -0.18220000
opls_141-182    C    0.87992994    0.79270987    0.73042055    -0.00190000
opls_523-183    C    0.83815001    0.59782994    0.66796986    -0.13680000
opls_700-184    C    0.80497989    0.57727988    0.74013973    0.03810000
opls_521-185    C    0.78694994    0.59429006    0.79416986    0.06210000
opls_141-186    C    0.78954006    0.53873994    0.74983014    -0.00290000
opls_142-187    C    0.71153991    0.63407000    0.68533014    -0.14270000
opls_137-188    C    0.71177999    0.62508989    0.86490959    -0.14320000
opls_137-189    C    0.72198000    0.60111001    0.86833014    -0.14340000
opls_142-190    C    0.72699002    0.59493004    0.68886986    -0.14340000
opls_137-191    C    0.72342992    0.61740984    0.57936027    -0.14330000
opls_423-192    C    0.85617002    0.80259003    0.65717945    0.22510000
opls_700-193    C    0.92856997    0.85433995    0.75785068    0.12280000
opls_142-194    C    0.91228997    0.81647995    0.78023014    -0.13340000
opls_142-195    C    0.75592997    0.51718004    0.79027945    -0.13630000
opls_700-196    C    0.73792987    0.47889991    0.78326027    0.10670000
opls_423-197    C    0.81091005    0.52460002    0.69290959    0.22520000
opls_145-198    C    0.96329997    0.87272984    0.70452055    -0.12120000
opls_145-199    C    0.98060995    0.90858999    0.69100959    -0.12180000
opls_700-200    C    0.96352990    0.92689998    0.73163014    0.02490000
opls_145-201    C    0.92884990    0.90856989    0.78650959    -0.12830000
opls_145-202    C    0.91162007    0.87267004    0.80112055    -0.12080000
opls_145-203    C    0.70397009    0.46097009    0.71676986    -0.13310000
opls_523-204    C    0.68633990    0.42504989    0.70426986    -0.12970000
opls_700-205    C    0.70237999    0.40633008    0.75749041    -0.00600000
opls_523-206    C    0.73589000    0.42412999    0.82906027    -0.12130000
opls_145-207    C    0.75319997    0.45992004    0.84529041    -0.12010000
opls_261-208    C    0.98216002    0.96494994    0.72192055    0.20440000
opls_531-209    C    0.68421003    0.36844997    0.74103973    0.34150000
opls_239-210    N    0.36280006    0.20628002    0.28439041    -0.31730000
opls_239-211    N    0.29462009    0.16482009    0.24530959    -0.31790000
opls_520-212    N    0.65001000    0.29924991    0.21785068    -0.48220000
opls_520-213    N    0.01485996    0.03476009    0.21126986    -0.49900000
opls_753-214    N    0.47709985    0.30453988    0.08882055    -0.34930000
opls_753-215    N    0.17999012    0.02159006    0.11203973    -0.31760000
opls_239-216    N    0.79078000    0.15420999    0.30182055    -0.30680000
opls_239-217    N    0.83153005    0.12701009    0.30346027    -0.31740000
opls_520-218    N    0.70235004    0.35145990    0.22883014    -0.45930000
opls_520-219    N    0.96325002    0.98175986    0.21445068    -0.46520000
opls_753-220    N    0.69769002    0.17270994    0.04483973    -0.30490000
MOF2_N_3-221    N    0.03012989    0.15934996    0.05042055    -0.25810000
opls_239-222    N    0.84454993    0.63791995    0.20740959    -0.30810000
opls_239-223    N    0.87027002    0.70614986    0.21526027    -0.31790000
opls_520-224    N    0.64997002    0.35134005    0.24340000    -0.49900000
opls_520-225    N    0.01633008    0.98326999    0.22630959    -0.49420000
opls_753-226    N    0.83020004    0.52135990    0.11756986    -0.30490000
opls_753-227    N    0.83653994    0.81537989    0.09396027    -0.31760000
opls_239-228    N    0.30458001    0.12528011    0.71892055    -0.31750000
opls_239-229    N    0.37288989    0.16739987    0.73949041    -0.31790000
opls_750-230    N    0.01666999    0.03486989    0.71263014    -0.49850000
opls_520-231    N    0.65054995    0.29864008    0.72046027    -0.47480000
opls_753-232    N    0.18764010    0.02579003    0.58734932    -0.30480000
opls_753-233    N    0.48123000    0.30986001    0.60346027    -0.31750000
opls_239-234    N    0.87550993    0.17968995    0.80294932    -0.30650000
opls_239-235    N    0.83451011    0.20673005    0.80046027    -0.31800000
opls_750-236    N    0.96456012    0.01768006    0.71232055    -0.27570000
opls_520-237    N    0.70225004    0.35160991    0.72849041    -0.45880000
opls_753-238    N    0.96889991    0.16119000    0.55026027    -0.30200000
opls_753-239    N    0.69649998    0.17382005    0.54103973    -0.31760000
opls_239-240    N    0.82349992    0.69566992    0.76096986    -0.31750000
opls_239-241    N    0.79820985    0.62780988    0.74382055    -0.31790000
opls_750-242    N    0.01715005    0.98290992    0.72690000    -0.40970000
opls_520-243    N    0.64925013    0.35011008    0.74250000    -0.47130000
opls_753-244    N    0.83682008    0.81022008    0.59946027    -0.30490000
opls_753-245    N    0.82823001    0.51358010    0.64727945    -0.30480000
opls_526-246    H    0.42860995    0.17586990    0.20067945    0.11670000
opls_524-247    H    0.40712008    0.25674997    0.31336027    0.11570000
opls_524-248    H    0.24512012    0.15160006    0.35063973    0.11550000
opls_526-249    H    0.25377011    0.06880004    0.11769041    0.11290000
opls_144-250    H    0.32080001    0.28687992    0.15909041    0.11670000
opls_144-251    H    0.29574001    0.26433001    0.48637945    0.11480000
opls_144-252    H    0.24854991    0.19983999    0.45544932    0.12350000
opls_144-253    H    0.24473993    0.18359995    0.10352055    0.11830000
opls_140-254    H    0.29343991    0.23592000    0.93176986    0.10180000
opls_796-255    H    0.37332998    0.27518987    0.24756986    0.37190000
opls_525-256    H    0.36790991    0.13480999    0.20217945    0.09370000
opls_525-257    H    0.31503007    0.10396995    0.12780000    0.11100000
opls_144-258    H    0.47541003    0.21332988    0.36250000    0.11940000
opls_144-259    H    0.19259994    0.12394988    0.27973014    0.09480000
opls_146-260    H    0.52608989    0.21599987    0.18032055    0.11180000
opls_526-261    H    0.58887000    0.24871991    0.14892055    0.11730000
opls_526-262    H    0.58923004    0.34036008    0.33333014    0.11840000
opls_146-263    H    0.52675998    0.30759004    0.36453973    0.11220000
opls_146-264    H    0.13908004    0.11761990    0.13350000    0.11630000
opls_526-265    H    0.07619013    0.08504008    0.11766986    0.11340000
opls_526-266    H    0.07642995    0.99672998    0.35070959    0.11340000
opls_146-267    H    0.13872011    0.02990004    0.37752055    0.09500000
opls_526-268    H    0.82717008    0.25194997    0.25850000    0.11260000
opls_524-269    H    0.74181992    0.14835994    0.23170000    0.10180000
opls_524-270    H    0.83965006    0.09008004    0.15777945    0.09850000
opls_526-271    H    0.93081000    0.18264990    0.31603973    0.11680000
opls_144-272    H    0.71828005    0.03551993    0.53660959    0.11600000
opls_144-273    H    0.77931002    0.05669012    0.66626986    0.09240000
opls_144-274    H    0.81768000    0.05698009    0.40366986    0.11620000
opls_140-275    H    0.78297993    0.04450004    0.09317945    0.11170000
opls_140-276    H    0.72008001    0.02846002    0.18167945    0.11730000
opls_796-277    H    0.72304994    0.09451997    0.21380000    0.36610000
opls_525-278    H    0.86438989    0.23044986    0.34272055    0.11320000
opls_525-279    H    0.89623994    0.20832988    0.38946027    0.10700000
opls_144-280    H    0.78791990    0.26395989    0.31363014    0.11290000
opls_144-281    H    0.87384991    0.06878999    0.28823973    0.10920000
opls_146-282    H    0.78556989    0.31182996    0.14009041    0.10910000
opls_526-283    H    0.75279000    0.34200991    0.12910000    0.11450000
opls_526-284    H    0.66067000    0.24838999    0.28480959    0.11340000
opls_146-285    H    0.69345000    0.21872991    0.30149041    0.10700000
opls_146-286    H    0.87862000    0.02011009    0.12727945    0.11340000
opls_526-287    H    0.91206999    0.99056007    0.11664932    0.11210000
opls_526-288    H    0.00221988    0.08342994    0.30167945    0.11000000
opls_146-289    H    0.96849990    0.11208997    0.31972055    0.11530000
opls_526-290    H    0.74798001    0.57206001    0.24905068    0.11440000
opls_524-291    H    0.85338010    0.59537001    0.20615068    0.09860000
opls_524-292    H    0.90598992    0.75637985    0.10676027    0.11570000
opls_526-293    H    0.81426984    0.74697987    0.33483973    0.11620000
opls_144-294    H    0.96909995    0.68224009    0.27190959    0.11310000
opls_140-295    H    0.95108995    0.71382991    0.50542055    0.11210000
opls_144-296    H    0.94167992    0.75820984    0.32659041    0.11630000
opls_140-297    H    0.94545995    0.74791007    0.96970959    0.11040000
opls_140-298    H    0.96272995    0.70067998    0.94073014    0.11760000
opls_796-299    H    0.90171999    0.63663999    0.00506986    0.37200000
opls_525-300    H    0.76714992    0.63251992    0.24625068    0.09790000
opls_525-301    H    0.78909990    0.68503998    0.34476027    0.11580000
opls_144-302    H    0.74068006    0.52596994    0.37274932    0.09860000
opls_144-303    H    0.92668994    0.80567989    0.29990959    0.11340000
opls_146-304    H    0.69174006    0.47558994    0.20623973    0.10940000
opls_526-305    H    0.66072992    0.41290001    0.17633973    0.11390000
opls_526-306    H    0.75216012    0.41098007    0.34593014    0.11210000
opls_146-307    H    0.78264994    0.47344988    0.37963973    0.11100000
opls_146-308    H    0.97597991    0.85927990    0.15556986    0.11390000
opls_526-309    H    0.00640993    0.92216004    0.13903973    0.11250000
opls_526-310    H    0.91519998    0.92177987    0.33430959    0.11210000
opls_146-311    H    0.88569988    0.85936985    0.35987945    0.11450000
opls_526-312    H    0.24040008    0.15890998    0.72077945    0.11900000
opls_524-313    H    0.26030998    0.07481995    0.69980000    0.11560000
opls_524-314    H    0.42232996    0.18130009    0.62343014    0.10180000
opls_526-315    H    0.41409001    0.26405010    0.85560959    0.11220000
opls_144-316    H    0.35089995    0.04669990    0.83993973    0.11360000
opls_140-317    H    0.38269993    0.09944987    0.05322055    0.09480000
opls_144-318    H    0.42624007    0.15056006    0.85629041    0.11760000
opls_140-319    H    0.41505996    0.13181009    0.50662055    0.09570000
opls_140-320    H    0.36864004    0.06675999    0.50112055    0.10700000
opls_796-321    H    0.29660002    0.06427996    0.56453973    0.37170000
opls_525-322    H    0.30088000    0.19848992    0.74736986    0.11760000
opls_525-323    H    0.35195992    0.22736001    0.86869041    0.11750000
opls_144-324    H    0.19211996    0.12073992    0.82924932    0.08450000
opls_144-325    H    0.47287995    0.21060989    0.80970959    0.11060000
opls_146-326    H    0.14097994    0.11795987    0.66276027    0.11420000
opls_146-327    H    0.07799997    0.08584012    0.64243973    0.11380000
opls_146-328    H    0.07749009    0.00604001    0.82480959    0.23310000
opls_146-329    H    0.14011990    0.02620990    0.84724932    0.11930000
opls_146-330    H    0.52631008    0.21502997    0.66026986    0.11460000
opls_526-331    H    0.58927990    0.24734999    0.64586986    0.11400000
opls_526-332    H    0.58884996    0.33817002    0.83906027    0.11650000
opls_146-333    H    0.52652990    0.30554999    0.86162055    0.11610000
opls_526-334    H    0.83965992    0.08201002    0.76342055    0.11530000
opls_524-335    H    0.92463005    0.18549000    0.73520000    0.10180000
opls_524-336    H    0.82591999    0.24346989    0.65583014    0.10170000
opls_526-337    H    0.73513996    0.15082992    0.81547945    0.11340000
opls_144-338    H    0.94913011    0.29992005    0.02076986    0.11430000
opls_140-339    H    0.88887995    0.27800007    0.16413014    0.10370000
opls_144-340    H    0.84797999    0.27578990    0.90870000    0.11600000
opls_140-341    H    0.88069992    0.28779002    0.59123973    0.09850000
opls_140-342    H    0.94422998    0.30438987    0.66547945    0.11430000
opls_796-343    H    0.94340998    0.23959004    0.71667945    0.37430000
opls_525-344    H    0.80194991    0.10321991    0.84496027    0.09630000
opls_525-345    H    0.76998001    0.12528011    0.88773973    0.11930000
opls_144-346    H    0.87879994    0.07011996    0.82149041    0.11760000
opls_144-347    H    0.79151010    0.26453002    0.78462055    0.11040000
opls_144-348    H    0.88070999    0.02204988    0.64679041    0.10920000
opls_144-349    H    0.91342999    0.00820997    0.62783973    0.08730000
opls_144-350    H    0.00580999    0.08511998    0.78673014    0.11420000
opls_144-351    H    0.97317998    0.11485996    0.80803014    0.11050000
opls_146-352    H    0.78668009    0.31334009    0.62526986    0.11160000
opls_526-353    H    0.75333010    0.34302002    0.62394932    0.11340000
opls_526-354    H    0.66303007    0.24939004    0.80009041    0.11090000
opls_146-355    H    0.69672015    0.22060011    0.81026986    0.09630000
opls_526-356    H    0.91860993    0.76228996    0.65673973    0.11390000
opls_524-357    H    0.81715003    0.73927997    0.81286027    0.09950000
opls_524-358    H    0.76460006    0.58060995    0.87746027    0.09950000
opls_526-359    H    0.85384998    0.58702988    0.62450000    0.11830000
opls_144-360    H    0.69973990    0.64844989    0.63449041    0.11260000
opls_140-361    H    0.69993001    0.63111985    0.97677945    0.11050000
opls_140-362    H    0.71884993    0.58479986    0.98380959    0.09630000
opls_144-363    H    0.72803995    0.57275000    0.63880959    0.11830000
opls_140-364    H    0.72155991    0.61593992    0.43275068    0.10370000
opls_796-365    H    0.76677001    0.70589985    0.71117945    0.36610000
opls_525-366    H    0.89985007    0.70193005    0.65007945    0.12350000
opls_525-367    H    0.87836992    0.64805992    0.60545068    0.10700000
opls_144-368    H    0.92911991    0.80768000    0.83316027    0.11600000
opls_144-369    H    0.73911000    0.52744991    0.81483973    0.09480000
opls_146-370    H    0.97703003    0.85921005    0.67253014    0.11210000
opls_146-371    H    0.00732008    0.92199998    0.64806027    0.11210000
opls_146-372    H    0.91519998    0.92192988    0.82359041    0.11340000
opls_146-373    H    0.88552992    0.85955002    0.85196027    0.10110000
opls_146-374    H    0.69129998    0.47487006    0.67050000    0.11230000
opls_526-375    H    0.66040991    0.41198991    0.64925068    0.11180000
opls_526-376    H    0.74857985    0.41034988    0.87690959    0.10850000
opls_146-377    H    0.77831990    0.47255988    0.90883014    0.11050000
opls_796-378    H    0.29451996    0.05768992    0.78380959    0.37180000
opls_796-379    H    0.36969001    0.26415011    0.45987945    0.36610000
opls_796-380    H    0.72764986    0.10603991    0.42517945    0.37190000
opls_796-381    H    0.93819999    0.22774998    0.92716986    0.36610000
opls_796-382    H    0.76936000    0.70169009    0.92870959    0.37180000
F2_Rh4f2-383    Rh    0.32404004    0.21746000    0.28477945    0.59670000
F2_Rh6+3-384    Rh    0.77863990    0.10431997    0.32269041    0.59690000
F2_Rh6+3-385    Rh    0.89375997    0.67661994    0.18600000    0.51730000
F2_Rh6+3-386    Rh    0.34357005    0.11439009    0.71586986    0.59680000
F2_Rh6+3-387    Rh    0.88744992    0.22954002    0.82147945    0.59690000
F2_Rh6+3-388    Rh    0.77386007    0.65635005    0.77099041    0.59700000
MOF2_O_3-389    O    0.35707005    0.26499010    0.35102055    -0.52980000
MOF2_O_3-390    O    0.72982006    0.09059012    0.33617945    -0.52990000
opls_154-391    O    0.90649009    0.64179000    0.13709041    -0.53060000
MOF2_O_3-392    O    0.30997005    0.06584009    0.67577945    -0.53070000
MOF2_O_3-393    O    0.93623004    0.24331008    0.83847945    -0.52950000
MOF2_O_3-394    O    0.75825992    0.68936985    0.81396027    -0.52980000
