#======================================================================
# Crystal Data Generated By AuToFF
#----------------------------------------------------------------------

data_AuToFF_phase_1

_cell_length_a                         44.8692
_cell_length_b                         44.8692
_cell_length_c                         3.3266
_cell_angle_alpha                      90.00
_cell_angle_beta                       90.00
_cell_angle_gamma                      120.00
_symmetry_space_group_name_H-M_alt     'P 1'
_symmetry_space_group_IT_number        1

loop_
_space_group_symop_operation_xyz
   'x, y, z'

loop_
   _atom_site_label
   _atom_site_type_symbol
   _atom_site_fract_x
   _atom_site_fract_y
   _atom_site_fract_z
   _atom_site_charge
opls_700-0    C    0.96427007    0.48482997    0.53194854    -0.19150000
opls_166-1    C    0.97963994    0.46516008    0.62072987    0.18350000
opls_145-2    C    0.01537008    0.48070005    0.59712920    -0.19580000
opls_234-3    C    0.92680000    0.47035002    0.54809114    0.42290000
opls_142-4    C    0.84777996    0.39433994    0.33122107    0.05240000
opls_700-5    C    0.81096987    0.38209995    0.34051885    0.05900000
opls_145-6    C    0.79847992    0.40341995    0.46105032    -0.19960000
opls_145-7    C    0.76353004    0.39139999    0.46922083    -0.17770000
opls_700-8    C    0.73991007    0.35796996    0.34304996    0.05930000
opls_145-9    C    0.75299992    0.33696005    0.21753141    -0.17660000
opls_145-10    C    0.78793996    0.34872009    0.22306860    -0.19990000
opls_700-11    C    0.70222003    0.34528990    0.34210004    0.06560000
opls_145-12    C    0.68979993    0.36820006    0.34173931    -0.09250000
opls_700-13    C    0.03585999    0.51529999    0.50015030    -0.17020000
opls_166-14    C    0.02043996    0.53489988    0.40823964    0.19450000
opls_145-15    C    0.98471005    0.51937999    0.43346059    -0.19580000
opls_234-16    C    0.07339002    0.52980001    0.48955089    0.42310000
opls_142-17    C    0.15249992    0.60715989    0.63438045    0.03120000
opls_700-18    C    0.18919007    0.61909003    0.63717910    0.05680000
opls_145-19    C    0.20130999    0.59721004    0.74429147    -0.19990000
opls_145-20    C    0.23620000    0.60896004    0.75352011    -0.17770000
opls_700-21    C    0.26011986    0.64261989    0.63729033    0.06180000
opls_145-22    C    0.24728984    0.66414989    0.52351049    -0.17660000
opls_145-23    C    0.21242985    0.65273984    0.53334937    -0.19990000
opls_700-24    C    0.29780986    0.65499988    0.63540853    0.06480000
opls_145-25    C    0.30997008    0.63186994    0.63487946    -0.09250000
opls_181-26    C    0.02660003    0.58824995    0.13524019    -0.19940000
opls_181-27    C    0.97327994    0.41169009    0.89120123    -0.19940000
opls_700-28    C    0.51517001    0.47944007    0.53194854    -0.19150000
opls_166-29    C    0.53484004    0.51448008    0.62072987    0.18350000
opls_145-30    C    0.51930008    0.53467007    0.59712920    -0.19580000
opls_234-31    C    0.52964997    0.45644988    0.54809114    0.42290000
opls_142-32    C    0.60565986    0.45343993    0.33122107    0.05240000
opls_700-33    C    0.61789990    0.42886988    0.34051885    0.05900000
opls_145-34    C    0.59657990    0.39506000    0.46105032    -0.19960000
opls_145-35    C    0.60860007    0.37213002    0.46922083    -0.17770000
opls_700-36    C    0.64202991    0.38193987    0.34304996    0.05930000
opls_145-37    C    0.66303995    0.41604005    0.21753141    -0.17660000
opls_145-38    C    0.65128001    0.43921991    0.22306860    -0.19990000
opls_700-39    C    0.65470996    0.35693001    0.34210004    0.06560000
opls_145-40    C    0.63179992    0.32159997    0.34173931    -0.09250000
opls_700-41    C    0.48470006    0.52055993    0.50015030    -0.17020000
opls_166-42    C    0.46510001    0.48553999    0.40823964    0.19450000
opls_145-43    C    0.48061991    0.46532993    0.43346059    -0.19580000
opls_234-44    C    0.47019992    0.54359001    0.48955089    0.42310000
opls_142-45    C    0.39283995    0.54533998    0.63438045    0.03120000
opls_700-46    C    0.38090994    0.57009996    0.63717910    0.05680000
opls_145-47    C    0.40278994    0.60410002    0.74429147    -0.19990000
opls_145-48    C    0.39103992    0.62723999    0.75352011    -0.17770000
opls_700-49    C    0.35737996    0.61749988    0.63729033    0.06180000
opls_145-50    C    0.33585006    0.58314004    0.52351049    -0.17660000
opls_145-51    C    0.34726005    0.55968997    0.53334937    -0.19990000
opls_700-52    C    0.34500006    0.64281007    0.63540853    0.06480000
opls_145-53    C    0.36813006    0.67809996    0.63487946    -0.09250000
opls_181-54    C    0.41175012    0.43835007    0.13524019    -0.19940000
opls_181-55    C    0.58830994    0.56158997    0.89120123    -0.19940000
opls_700-56    C    0.52055992    0.03572996    0.53194854    -0.19150000
opls_166-57    C    0.48552015    0.02036010    0.62072987    0.18350000
opls_145-58    C    0.46532984    0.98462988    0.59712920    -0.19580000
opls_234-59    C    0.54355003    0.07320010    0.54809114    0.42290000
opls_142-60    C    0.54656004    0.15221987    0.33122107    0.05240000
opls_700-61    C    0.57112988    0.18902992    0.34051885    0.05900000
opls_145-62    C    0.60493995    0.20152005    0.46105032    -0.19960000
opls_145-63    C    0.62786989    0.23646999    0.46922083    -0.17770000
opls_700-64    C    0.61805990    0.26008991    0.34304996    0.05930000
opls_145-65    C    0.58395991    0.24699990    0.21753141    -0.17660000
opls_145-66    C    0.56078003    0.21206000    0.22306860    -0.19990000
opls_700-67    C    0.64307002    0.29778009    0.34210004    0.06560000
opls_145-68    C    0.67839993    0.31019997    0.34173931    -0.09250000
opls_700-69    C    0.47943982    0.96413983    0.50015030    -0.17020000
opls_166-70    C    0.51445989    0.97955987    0.40823964    0.19450000
opls_145-71    C    0.53467004    0.01529008    0.43346059    -0.19580000
opls_234-72    C    0.45641006    0.92660998    0.48955089    0.42310000
opls_142-73    C    0.45466001    0.84749988    0.63438045    0.03120000
opls_700-74    C    0.42989998    0.81081001    0.63717910    0.05690000
opls_145-75    C    0.39590007    0.79868994    0.74429147    -0.19990000
opls_145-76    C    0.37276009    0.76379997    0.75352011    -0.17770000
opls_700-77    C    0.38250005    0.73987998    0.63729033    0.06190000
opls_145-78    C    0.41686010    0.75271007    0.52351049    -0.17660000
opls_145-79    C    0.44030998    0.78756993    0.53334937    -0.19990000
opls_700-80    C    0.35719008    0.70219006    0.63540853    0.06480000
opls_145-81    C    0.32189996    0.69002984    0.63487946    -0.09250000
opls_181-82    C    0.56165007    0.97339998    0.13524019    -0.19940000
opls_181-83    C    0.43840989    0.02671994    0.89120123    -0.19940000
opls_236-84    O    0.91548993    0.48824987    0.66527085    -0.39800000
opls_179-85    O    0.95852994    0.43095002    0.74127938    -0.17770000
opls_236-86    O    0.08475987    0.51159984    0.38640053    -0.39800000
opls_179-87    O    0.04143985    0.56894987    0.28145855    -0.18270000
opls_236-88    O    0.51174994    0.42724009    0.66527085    -0.39800000
opls_179-89    O    0.56904989    0.52757987    0.74127938    -0.17770000
opls_236-90    O    0.48840000    0.57316008    0.38640053    -0.39790000
opls_179-91    O    0.43104984    0.47248987    0.28145855    -0.18260000
opls_236-92    O    0.57275991    0.08451004    0.66527085    -0.39800000
opls_179-93    O    0.47241995    0.04147011    0.74127938    -0.17770000
opls_236-94    O    0.42684000    0.91523982    0.38640053    -0.39800000
opls_179-95    O    0.52750997    0.95856000    0.28145855    -0.18270000
opls_238-96    N    0.90476987    0.43787989    0.42293032    -0.26270000
opls_750-97    N    0.86953988    0.42521991    0.43729934    -0.13670000
opls_238-98    N    0.09542988    0.56263995    0.60284976    -0.25020000
opls_750-99    N    0.13061993    0.57499986    0.60027055    -0.13800000
opls_238-100    N    0.56211989    0.46688998    0.42293032    -0.26270000
opls_750-101    N    0.57478008    0.44432003    0.43729934    -0.13680000
opls_238-102    N    0.43735988    0.53278988    0.60284976    -0.25020000
opls_750-103    N    0.42500006    0.55562001    0.60027055    -0.13790000
opls_238-104    N    0.53310989    0.09522987    0.42293032    -0.26270000
opls_750-105    N    0.55568005    0.13046006    0.43729934    -0.13680000
opls_238-106    N    0.46720989    0.90456991    0.60284976    -0.25020000
opls_750-107    N    0.44437988    0.86937987    0.60027055    -0.13800000
opls_910-108    H    0.91389998    0.42294006    0.29629953    0.22750000
opls_144-109    H    0.85663991    0.37737992    0.23028017    0.10040000
opls_146-110    H    0.81567004    0.42927006    0.55805928    0.10240000
opls_146-111    H    0.75556003    0.40845008    0.58719113    0.23560000
opls_146-112    H    0.73680989    0.31166994    0.10085072    0.23560000
opls_146-113    H    0.79707005    0.33195000    0.12434919    0.10240000
opls_146-114    H    0.70757986    0.39501985    0.34108098    0.23610000
opls_910-115    H    0.08643001    0.57822984    0.71255035    0.22750000
opls_144-116    H    0.14388999    0.62553995    0.64757109    0.10060000
opls_146-117    H    0.18382990    0.57121994    0.83426021    0.10240000
opls_146-118    H    0.24381001    0.59141996    0.86405038    0.10510000
opls_146-119    H    0.26357997    0.68967007    0.41442915    0.10510000
opls_146-120    H    0.20350006    0.66993996    0.44564120    0.10240000
opls_146-121    H    0.29203001    0.60513996    0.63401070    0.23570000
opls_146-122    H    0.02781007    0.46611999    0.65618950    0.22940000
opls_146-123    H    0.97220998    0.53390986    0.37406060    0.08580000
opls_185-124    H    0.01755000    0.59835987    0.37529910    0.09090000
opls_185-125    H    0.00484999    0.57283994    0.93631035    0.09120000
opls_185-126    H    0.04651997    0.61061993    0.97103950    0.09790000
opls_185-127    H    0.98244006    0.40151995    0.65278964    0.09110000
opls_185-128    H    0.95329003    0.38937003    0.05539891    0.09790000
opls_185-129    H    0.99492992    0.42712995    0.09145975    0.11100000
opls_910-130    H    0.57706002    0.49096000    0.29629953    0.22750000
opls_144-131    H    0.62261985    0.47925993    0.23028017    0.10040000
opls_146-132    H    0.57073001    0.38639998    0.55805928    0.10240000
opls_146-133    H    0.59154990    0.34710986    0.58719113    0.23560000
opls_146-134    H    0.68832992    0.42513988    0.10085072    0.23560000
opls_146-135    H    0.66805001    0.46511994    0.12434919    0.10240000
opls_146-136    H    0.60497992    0.31255985    0.34108098    0.23600000
opls_910-137    H    0.42177003    0.50820001    0.71255035    0.22750000
opls_144-138    H    0.37446014    0.51835008    0.64757109    0.10060000
opls_146-139    H    0.42878011    0.61261001    0.83426021    0.10240000
opls_146-140    H    0.40857995    0.65238985    0.86405038    0.10510000
opls_146-141    H    0.31033005    0.57391000    0.41442915    0.10510000
opls_146-142    H    0.33005987    0.53355987    0.44564120    0.10240000
opls_146-143    H    0.39485997    0.68688994    0.63401070    0.23570000
opls_146-144    H    0.53388008    0.56169008    0.65618950    0.22940000
opls_146-145    H    0.46608994    0.43829989    0.37406060    0.08580000
opls_185-146    H    0.40164009    0.41918999    0.37529910    0.09090000
opls_185-147    H    0.42716011    0.43201004    0.93631035    0.09120000
opls_185-148    H    0.38938000    0.43589986    0.97103950    0.09790000
opls_185-149    H    0.59847993    0.58091990    0.65278964    0.09110000
opls_185-150    H    0.61063000    0.56392000    0.05539891    0.09790000
opls_185-151    H    0.57286996    0.56780004    0.09145975    0.11100000
opls_910-152    H    0.50904000    0.08609993    0.29629953    0.22760000
opls_144-153    H    0.52073988    0.14335989    0.23028017    0.10040000
opls_146-154    H    0.61359996    0.18432997    0.55805928    0.10240000
opls_146-155    H    0.65289007    0.24444006    0.58719113    0.23560000
opls_146-156    H    0.57486005    0.26318993    0.10085072    0.23560000
opls_146-157    H    0.53487994    0.20293006    0.12434919    0.10240000
opls_146-158    H    0.68744009    0.29242004    0.34108098    0.23600000
opls_910-159    H    0.49180006    0.91356989    0.71255035    0.22750000
opls_144-160    H    0.48164988    0.85610997    0.64757109    0.10060000
opls_146-161    H    0.38738999    0.81617006    0.83426021    0.10240000
opls_146-162    H    0.34760991    0.75618993    0.86405038    0.10510000
opls_146-163    H    0.42608998    0.73641993    0.41442915    0.10510000
opls_146-164    H    0.46643994    0.79649991    0.44564120    0.10240000
opls_146-165    H    0.31310989    0.70796984    0.63401070    0.23580000
opls_146-166    H    0.43831007    0.97218993    0.65618950    0.22940000
opls_146-167    H    0.56169995    0.02778999    0.37406060    0.08580000
opls_185-168    H    0.58081000    0.98244989    0.37529910    0.09090000
opls_185-169    H    0.56798990    0.99515002    0.93631035    0.09120000
opls_185-170    H    0.56409990    0.95347995    0.97103950    0.09790000
opls_185-171    H    0.41907988    0.01755989    0.65278964    0.09110000
opls_185-172    H    0.43607997    0.04670997    0.05539891    0.09790000
opls_185-173    H    0.43219990    0.00507002    0.09145975    0.11100000
