#======================================================================
# Crystal Data Generated By AuToFF
#----------------------------------------------------------------------

data_AuToFF_phase_1

_cell_length_a                         30.8574
_cell_length_b                         18.7765
_cell_length_c                         8.8872
_cell_angle_alpha                      90.00
_cell_angle_beta                       90.00
_cell_angle_gamma                      90.00
_symmetry_space_group_name_H-M_alt     'P 1'
_symmetry_space_group_IT_number        1

loop_
_space_group_symop_operation_xyz
   'x, y, z'

loop_
   _atom_site_label
   _atom_site_type_symbol
   _atom_site_fract_x
   _atom_site_fract_y
   _atom_site_fract_z
   _atom_site_charge
opls_142-0    C    0.20527005    0.29196975    0.81387051    0.08080000
opls_145-1    C    0.14357010    0.25741006    0.92371951    0.14850000
opls_145-2    C    0.11548996    0.27774026    0.02374989    -0.21810000
opls_145-3    C    0.08374004    0.24123985    0.05578022    -0.21450000
opls_145-4    C    0.07862004    0.18409022    0.98647043    0.02080000
opls_145-5    C    0.10639004    0.16360024    0.88313980    -0.22590000
opls_145-6    C    0.13946995    0.19936996    0.85445022    -0.22270000
opls_145-7    C    0.94037994    0.20718984    0.04981997    0.02610000
opls_145-8    C    0.94209007    0.26261018    0.13332996    -0.21490000
opls_145-9    C    0.91309994    0.30713978    0.12373976    -0.21810000
opls_145-10    C    0.88096988    0.29603014    0.03305991    0.12320000
opls_145-11    C    0.87962985    0.24199984    0.94619003    -0.21910000
opls_145-12    C    0.90924997    0.19805022    0.95245972    -0.22530000
opls_142-13    C    0.84225016    0.38825979    0.09791048    0.09100000
opls_145-14    C    0.25471005    0.45367987    0.92601044    -0.22510000
opls_145-15    C    0.22798000    0.40678987    0.91399991    -0.21490000
opls_145-16    C    0.23283005    0.35788992    0.81247975    0.00730000
opls_145-17    C    0.26385988    0.35912976    0.71336979    -0.22530000
opls_145-18    C    0.28894009    0.40932016    0.71492033    -0.22530000
opls_145-19    C    0.26092996    0.64137992    0.01804055    -0.22580000
opls_145-20    C    0.22581002    0.66920992    0.03841030    -0.21450000
opls_145-21    C    0.19407986    0.64931004    0.95643960    0.00450000
opls_145-22    C    0.19875006    0.60382020    0.84559029    -0.22540000
opls_145-23    C    0.23479003    0.57887998    0.81858966    -0.22540000
opls_142-24    C    0.15690013    0.67857002    0.98137996    0.08110000
opls_145-25    C    0.12097001    0.75978004    0.10812967    0.11830000
opls_145-26    C    0.12367990    0.80722020    0.21474030    -0.22410000
opls_145-27    C    0.09486995    0.85205017    0.22690049    -0.22540000
opls_145-28    C    0.06218994    0.84973025    0.13567040    0.02570000
opls_145-29    C    0.05865011    0.79993023    0.03521019    -0.22380000
opls_145-30    C    0.08727015    0.75527015    0.02192029    -0.22140000
opls_145-31    C    0.02999994    0.89510026    0.15371996    0.01360000
opls_147-32    C    0.03382009    0.95984023    0.13355050    0.01290000
opls_145-33    C    0.00083999    0.99841025    0.13712980    0.00920000
opls_147-34    C    0.96475011    0.97298005    0.17377014    0.01290000
opls_145-35    C    0.96097014    0.90825021    0.19116032    0.01360000
opls_145-36    C    0.99353996    0.87099992    0.17955036    -0.16290000
opls_145-37    C    0.06930007    0.98723990    0.10545954    -0.22860000
opls_145-38    C    0.07234991    0.04965995    0.07229049    -0.22870000
opls_147-39    C    0.03984004    0.08753016    0.06105973    0.01360000
opls_145-40    C    0.00382015    0.06222992    0.10023967    0.00920000
opls_147-41    C    0.97073992    0.10051021    0.10254973    0.01360000
opls_145-42    C    0.93623993    0.07569994    0.15562044    -0.22770000
opls_145-43    C    0.93355986    0.01331025    0.19223040    -0.22770000
opls_145-44    C    0.04222002    0.15035017    0.01614007    0.01360000
opls_145-45    C    0.00867993    0.18534019    0.00769984    -0.16060000
opls_145-46    C    0.97322004    0.16276995    0.05356018    0.01400000
opls_145-47    C    0.92345985    0.87596996    0.20463025    0.02590000
opls_145-48    C    0.89250002    0.89237984    0.11229971    -0.21860000
opls_145-49    C    0.85873988    0.85864991    0.11526015    -0.21800000
opls_145-50    C    0.85618004    0.80477991    0.20091030    0.14950000
opls_145-51    C    0.88706988    0.78686976    0.29006999    -0.21550000
opls_145-52    C    0.91992002    0.82333023    0.29643982    -0.21880000
opls_142-53    C    0.79008990    0.77948020    0.14921010    0.08150000
opls_145-54    C    0.75626009    0.73250979    0.10027005    0.00660000
opls_145-55    C    0.71903012    0.73084015    0.15725988    -0.21450000
opls_145-56    C    0.69421986    0.68343994    0.11334954    -0.22530000
opls_145-57    C    0.70606986    0.63867015    0.00836034    0.02100000
opls_145-58    C    0.74218016    0.64413975    0.94356040    -0.21450000
opls_145-59    C    0.76728013    0.68995020    0.99001035    -0.21880000
opls_145-60    C    0.68034993    0.58682981    0.96692997    0.01300000
opls_145-61    C    0.80089995    0.43833995    0.06144005    0.05070000
opls_145-62    C    0.79091984    0.49263015    0.13848006    -0.21880000
opls_145-63    C    0.75590004    0.52188001    0.10751980    -0.22540000
opls_145-64    C    0.73131988    0.49944026    0.99553965    0.02840000
opls_145-65    C    0.74330987    0.44821026    0.91045999    -0.22510000
opls_145-66    C    0.77689987    0.41729982    0.94638019    -0.22530000
opls_145-67    C    0.69155989    0.52337017    0.97229949    0.01360000
opls_145-68    C    0.64278001    0.60155993    0.92019984    -0.26010000
opls_145-69    C    0.66282999    0.47851996    0.95960032    -0.25490000
opls_182-70    C    0.56658014    0.46528000    0.05622018    -0.00520000
opls_182-71    C    0.53077997    0.43043006    0.01062989    -0.00450000
opls_182-72    C    0.43382009    0.48744974    0.95961945    -0.00680000
opls_182-73    C    0.47014006    0.45196016    0.92835989    -0.00470000
opls_166-74    C    0.37338985    0.59135994    0.89894005    0.11810000
opls_166-75    C    0.38077997    0.53161026    0.84138986    0.11290000
opls_166-76    C    0.62508993    0.49384017    0.93310041    0.11290000
opls_166-77    C    0.61568992    0.55492025    0.89278963    0.11780000
opls_182-78    C    0.56352998    0.62611988    0.82357998    -0.00520000
opls_182-79    C    0.52235995    0.62275025    0.76053988    -0.00520000
opls_182-80    C    0.47161005    0.63787980    0.93284049    -0.00470000
opls_182-81    C    0.43285014    0.64278007    0.85137051    -0.00660000
opls_145-82    C    0.33599007    0.61023993    0.91118012    -0.26050000
opls_145-83    C    0.30509991    0.57003009    0.88178054    0.01400000
opls_145-84    C    0.31313008    0.50838016    0.83341997    0.01360000
opls_145-85    C    0.35114008    0.49196016    0.80812967    -0.26050000
opls_145-86    C    0.26621005    0.59594014    0.90704046    0.02680000
opls_145-87    C    0.28458004    0.45756025    0.82173013    0.02840000
opls_142-88    C    0.20527005    0.29196975    0.31387051    0.08080000
opls_145-89    C    0.14357010    0.25741006    0.42372963    0.14850000
opls_145-90    C    0.11548996    0.27774026    0.52374989    -0.21810000
opls_145-91    C    0.08374004    0.24123985    0.55578022    -0.21450000
opls_145-92    C    0.07862004    0.18409022    0.48647043    0.02080000
opls_145-93    C    0.10639004    0.16360024    0.38313980    -0.22590000
opls_145-94    C    0.13946995    0.19936996    0.35445022    -0.22280000
opls_145-95    C    0.94037994    0.20718984    0.54981997    0.02610000
opls_145-96    C    0.94209007    0.26261018    0.63332996    -0.21490000
opls_145-97    C    0.91309994    0.30713978    0.62373976    -0.21810000
opls_145-98    C    0.88096988    0.29603014    0.53305991    0.12320000
opls_145-99    C    0.87962985    0.24199984    0.44619003    -0.21910000
opls_145-100    C    0.90924997    0.19805022    0.45245972    -0.22530000
opls_142-101    C    0.84225016    0.38825979    0.59791048    0.09100000
opls_145-102    C    0.25471005    0.45367987    0.42601044    -0.22510000
opls_145-103    C    0.22798000    0.40678987    0.41399991    -0.21490000
opls_145-104    C    0.23283005    0.35788992    0.31247975    0.00730000
opls_145-105    C    0.26385988    0.35912976    0.21336979    -0.22530000
opls_145-106    C    0.28894009    0.40932016    0.21492033    -0.22530000
opls_145-107    C    0.26092996    0.64137992    0.51804055    -0.22590000
opls_145-108    C    0.22581002    0.66920992    0.53841030    -0.21450000
opls_145-109    C    0.19407986    0.64931004    0.45643960    0.00450000
opls_145-110    C    0.19875006    0.60382020    0.34559029    -0.22540000
opls_145-111    C    0.23479003    0.57887998    0.31858966    -0.22540000
opls_142-112    C    0.15690013    0.67857002    0.48137996    0.08100000
opls_145-113    C    0.12097001    0.75978004    0.60812967    0.11830000
opls_145-114    C    0.12367990    0.80722020    0.71474030    -0.22410000
opls_145-115    C    0.09486995    0.85205017    0.72690049    -0.22540000
opls_145-116    C    0.06218994    0.84973025    0.63567040    0.02570000
opls_145-117    C    0.05865011    0.79993023    0.53521019    -0.22380000
opls_145-118    C    0.08727015    0.75527015    0.52192029    -0.22140000
opls_145-119    C    0.02999994    0.89510026    0.65371996    0.01360000
opls_147-120    C    0.03382009    0.95984023    0.63355050    0.01290000
opls_145-121    C    0.00083999    0.99841025    0.63712980    0.00920000
opls_147-122    C    0.96475011    0.97298005    0.67377014    0.01290000
opls_145-123    C    0.96097014    0.90825021    0.69116032    0.01360000
opls_145-124    C    0.99353996    0.87099992    0.67955036    -0.16290000
opls_145-125    C    0.06930007    0.98723990    0.60545954    -0.22870000
opls_145-126    C    0.07234991    0.04965995    0.57229049    -0.22870000
opls_147-127    C    0.03984004    0.08753016    0.56105973    0.01360000
opls_145-128    C    0.00382015    0.06222992    0.60023967    0.00920000
opls_147-129    C    0.97073992    0.10051021    0.60254973    0.01360000
opls_145-130    C    0.93623993    0.07569994    0.65562044    -0.22770000
opls_145-131    C    0.93355986    0.01331025    0.69223040    -0.22770000
opls_145-132    C    0.04222002    0.15035017    0.51614007    0.01360000
opls_145-133    C    0.00867993    0.18534019    0.50769984    -0.16060000
opls_145-134    C    0.97322004    0.16276995    0.55356018    0.01400000
opls_145-135    C    0.92345985    0.87596996    0.70463025    0.02590000
opls_145-136    C    0.89250002    0.89237984    0.61229971    -0.21870000
opls_145-137    C    0.85873988    0.85864991    0.61526015    -0.21790000
opls_145-138    C    0.85618004    0.80477991    0.70091030    0.14950000
opls_145-139    C    0.88706988    0.78686976    0.79006999    -0.21550000
opls_145-140    C    0.91992002    0.82333023    0.79643982    -0.21880000
opls_142-141    C    0.79008990    0.77948020    0.64921010    0.08150000
opls_145-142    C    0.75626009    0.73250979    0.60027005    0.00660000
opls_145-143    C    0.71903012    0.73084015    0.65725988    -0.21450000
opls_145-144    C    0.69421986    0.68343994    0.61334954    -0.22530000
opls_145-145    C    0.70606986    0.63867015    0.50836034    0.02100000
opls_145-146    C    0.74218016    0.64413975    0.44356040    -0.21450000
opls_145-147    C    0.76728013    0.68995020    0.49001035    -0.21880000
opls_145-148    C    0.68034993    0.58682981    0.46692997    0.01300000
opls_145-149    C    0.80089995    0.43833995    0.56144005    0.05070000
opls_145-150    C    0.79091984    0.49263015    0.63848006    -0.21870000
opls_145-151    C    0.75590004    0.52188001    0.60751980    -0.22540000
opls_145-152    C    0.73131988    0.49944026    0.49553965    0.02840000
opls_145-153    C    0.74330987    0.44821026    0.41045999    -0.22510000
opls_145-154    C    0.77689987    0.41729982    0.44638019    -0.22520000
opls_145-155    C    0.69155989    0.52337017    0.47229949    0.01360000
opls_145-156    C    0.64278001    0.60155993    0.42019984    -0.26010000
opls_145-157    C    0.66282999    0.47851996    0.45960032    -0.25490000
opls_182-158    C    0.56658014    0.46528000    0.55622018    -0.00520000
opls_182-159    C    0.53077997    0.43043006    0.51062989    -0.00450000
opls_182-160    C    0.43382009    0.48744974    0.45961945    -0.00680000
opls_182-161    C    0.47014006    0.45196016    0.42835989    -0.00470000
opls_166-162    C    0.37338985    0.59135994    0.39894005    0.11810000
opls_166-163    C    0.38077997    0.53161026    0.34139999    0.11290000
opls_166-164    C    0.62508993    0.49384017    0.43310041    0.11290000
opls_166-165    C    0.61568992    0.55492025    0.39278963    0.11790000
opls_182-166    C    0.56352998    0.62611988    0.32357998    -0.00520000
opls_182-167    C    0.52235995    0.62275025    0.26053988    -0.00520000
opls_182-168    C    0.47161005    0.63787980    0.43284049    -0.00470000
opls_182-169    C    0.43285014    0.64278007    0.35137051    -0.00660000
opls_145-170    C    0.33599007    0.61023993    0.41119025    -0.26050000
opls_145-171    C    0.30509991    0.57003009    0.38178054    0.01380000
opls_145-172    C    0.31313008    0.50838016    0.33341997    0.01360000
opls_145-173    C    0.35114008    0.49196016    0.30812967    -0.26050000
opls_145-174    C    0.26621005    0.59594014    0.40704946    0.02680000
opls_145-175    C    0.28458004    0.45756025    0.32173013    0.02840000
opls_750-176    N    0.17511002    0.29835007    0.89668962    -0.21560000
opls_750-177    N    0.84918010    0.33766996    0.02310964    -0.23420000
opls_750-178    N    0.15359006    0.72055016    0.08507967    -0.20460000
opls_750-179    N    0.82487993    0.76312998    0.18156000    -0.23710000
opls_750-180    N    0.17511002    0.29835007    0.39668962    -0.21560000
opls_750-181    N    0.84918010    0.33766996    0.52310964    -0.23420000
opls_750-182    N    0.15359006    0.72055016    0.58507967    -0.20460000
opls_750-183    N    0.82487993    0.76312998    0.68156000    -0.23710000
opls_179-184    O    0.59765016    0.44749021    0.95829958    -0.25460000
opls_180-185    O    0.49821988    0.46806008    0.03631965    -0.22800000
opls_179-186    O    0.41721986    0.50812026    0.81978013    -0.24750000
opls_179-187    O    0.40177008    0.63204005    0.95433995    -0.25210000
opls_179-188    O    0.58028998    0.56579980    0.82017958    -0.24270000
opls_180-189    O    0.49650003    0.59432003    0.86291970    -0.22310000
opls_179-190    O    0.59765016    0.44749021    0.45829958    -0.25450000
opls_180-191    O    0.49821988    0.46806008    0.53631965    -0.22800000
opls_179-192    O    0.41721986    0.50812026    0.31978013    -0.24760000
opls_179-193    O    0.40177008    0.63204005    0.45433995    -0.25210000
opls_179-194    O    0.58028998    0.56579980    0.32018971    -0.24330000
opls_180-195    O    0.49650003    0.59432003    0.36291970    -0.22320000
opls_144-196    H    0.21123005    0.24978990    0.75038032    0.09350000
opls_146-197    H    0.11775004    0.32256012    0.07747997    0.19920000
opls_146-198    H    0.06280989    0.25833995    0.13575029    0.19940000
opls_146-199    H    0.10242989    0.11985993    0.82678009    0.19890000
opls_146-200    H    0.16127995    0.18269006    0.77776015    0.19870000
opls_146-201    H    0.96611996    0.27089021    0.20713948    0.19830000
opls_146-202    H    0.91576996    0.34991985    0.18578968    0.19900000
opls_146-203    H    0.85526000    0.23532021    0.87256954    0.19820000
opls_146-204    H    0.90767984    0.15741006    0.88242979    0.19900000
opls_144-205    H    0.86146014    0.40437994    0.18595958    0.09670000
opls_146-206    H    0.25197003    0.48600005    0.01785039    0.19880000
opls_146-207    H    0.20377997    0.40749980    0.98894027    0.19830000
opls_146-208    H    0.26751995    0.32222992    0.63284049    0.19830000
opls_146-209    H    0.31167013    0.41036988    0.63178954    0.19890000
opls_146-210    H    0.28347009    0.65616009    0.09258034    0.19910000
opls_146-211    H    0.22401012    0.70601976    0.12050027    0.19810000
opls_146-212    H    0.17495998    0.58849999    0.77773990    0.19920000
opls_146-213    H    0.23825014    0.54651027    0.72770951    0.19910000
opls_144-214    H    0.13360004    0.66696988    0.90609978    0.09350000
opls_146-215    H    0.14826006    0.80857987    0.28893015    0.19820000
opls_146-216    H    0.09717993    0.88679999    0.31310987    0.19940000
opls_146-217    H    0.03327014    0.79596996    0.96686020    0.19930000
opls_146-218    H    0.08282000    0.71769020    0.94481051    0.19930000
opls_146-219    H    0.99063985    0.82114026    0.18523044    0.19930000
opls_146-220    H    0.09517004    0.95988017    0.10653974    0.19930000
opls_146-221    H    0.10060990    0.06691982    0.05038032    0.19930000
opls_146-222    H    0.91125986    0.10448007    0.16738005    0.19930000
opls_146-223    H    0.90628990    0.99685990    0.23263007    0.19900000
opls_146-224    H    0.00991010    0.23218012    0.96509024    0.19930000
opls_146-225    H    0.89435014    0.93048012    0.03353025    0.19830000
opls_146-226    H    0.83540998    0.87313983    0.04406000    0.19930000
opls_146-227    H    0.88620007    0.74325993    0.34901994    0.19920000
opls_146-228    H    0.94332996    0.80915985    0.36969012    0.19940000
opls_144-229    H    0.78143006    0.82750992    0.14773945    0.09350000
opls_146-230    H    0.70952997    0.76533007    0.23698015    0.19840000
opls_146-231    H    0.66609014    0.68059010    0.16410005    0.19930000
opls_146-232    H    0.75086009    0.61188986    0.85875979    0.19830000
opls_146-233    H    0.79507995    0.69361010    0.93706004    0.19890000
opls_146-234    H    0.80971987    0.51183021    0.22220947    0.19820000
opls_146-235    H    0.74816997    0.56149975    0.17265956    0.19910000
opls_146-236    H    0.72611011    0.43023993    0.81840962    0.19890000
opls_146-237    H    0.78444004    0.37590978    0.88565015    0.19910000
opls_146-238    H    0.63515008    0.64937022    0.90341952    0.19930000
opls_146-239    H    0.66920998    0.43017016    0.97741021    0.19930000
opls_185-240    H    0.55926002    0.51544004    0.05208952    0.08550000
opls_185-241    H    0.57346990    0.45359998    0.17645040    0.04730000
opls_185-242    H    0.53454990    0.41738982    0.88887951    0.04690000
opls_185-243    H    0.52830990    0.38707001    0.07873008    0.08970000
opls_185-244    H    0.41368002    0.45618992    0.02049014    0.08860000
opls_185-245    H    0.44121993    0.52643996    0.03709042    0.08850000
opls_185-246    H    0.47964994    0.46311986    0.81089995    0.04510000
opls_185-247    H    0.46355007    0.40163982    0.93423013    0.08550000
opls_185-248    H    0.58068988    0.65754001    0.74974008    0.08870000
opls_185-249    H    0.56307984    0.64537001    0.93990008    0.06420000
opls_185-250    H    0.52336004    0.59289005    0.65925038    0.08900000
opls_185-251    H    0.51303998    0.66943999    0.72183027    0.08550000
opls_185-252    H    0.48508008    0.68394003    0.94750990    0.08550000
opls_185-253    H    0.46606001    0.62132985    0.04885003    0.05610000
opls_185-254    H    0.43229015    0.61174021    0.75022054    0.07590000
opls_185-255    H    0.43009003    0.69034005    0.80490031    0.08560000
opls_146-256    H    0.33159015    0.65808005    0.93937011    0.19940000
opls_146-257    H    0.35892006    0.44618007    0.77291948    0.19930000
opls_144-258    H    0.21123005    0.24978990    0.25039045    0.09350000
opls_146-259    H    0.11775004    0.32256012    0.57747997    0.19930000
opls_146-260    H    0.06280989    0.25833995    0.63575029    0.19940000
opls_146-261    H    0.10242989    0.11985993    0.32678009    0.19900000
opls_146-262    H    0.16127995    0.18269006    0.27776015    0.19870000
opls_146-263    H    0.96611996    0.27089021    0.70713948    0.19830000
opls_146-264    H    0.91576996    0.34991985    0.68578968    0.19890000
opls_146-265    H    0.85526000    0.23532021    0.37256954    0.19820000
opls_146-266    H    0.90767984    0.15741006    0.38242979    0.19900000
opls_144-267    H    0.86146014    0.40437994    0.68595958    0.09670000
opls_146-268    H    0.25197003    0.48600005    0.51785039    0.19880000
opls_146-269    H    0.20377997    0.40749980    0.48894027    0.19840000
opls_146-270    H    0.26751995    0.32222992    0.13284049    0.19830000
opls_146-271    H    0.31167013    0.41036988    0.13179967    0.19890000
opls_146-272    H    0.28347009    0.65616009    0.59258034    0.19910000
opls_146-273    H    0.22401012    0.70601976    0.62050027    0.19810000
opls_146-274    H    0.17495998    0.58849999    0.27775002    0.19910000
opls_146-275    H    0.23825014    0.54651027    0.22770951    0.19900000
opls_144-276    H    0.13360004    0.66696988    0.40609978    0.09350000
opls_146-277    H    0.14826006    0.80857987    0.78893015    0.19820000
opls_146-278    H    0.09717993    0.88679999    0.81310987    0.19950000
opls_146-279    H    0.03327014    0.79596996    0.46686020    0.19930000
opls_146-280    H    0.08282000    0.71769020    0.44481051    0.19930000
opls_146-281    H    0.99063985    0.82114026    0.68523044    0.19930000
opls_146-282    H    0.09517004    0.95988017    0.60653974    0.19930000
opls_146-283    H    0.10060990    0.06691982    0.55038032    0.19930000
opls_146-284    H    0.91125986    0.10448007    0.66738005    0.19940000
opls_146-285    H    0.90628990    0.99685990    0.73263007    0.19900000
opls_146-286    H    0.00991010    0.23218012    0.46509024    0.19930000
opls_146-287    H    0.89435014    0.93048012    0.53353025    0.19830000
opls_146-288    H    0.83540998    0.87313983    0.54406000    0.19930000
opls_146-289    H    0.88620007    0.74325993    0.84901994    0.19920000
opls_146-290    H    0.94332996    0.80915985    0.86969012    0.19940000
opls_144-291    H    0.78143006    0.82750992    0.64773945    0.09350000
opls_146-292    H    0.70952997    0.76533007    0.73698015    0.19840000
opls_146-293    H    0.66609014    0.68059010    0.66410005    0.19930000
opls_146-294    H    0.75086009    0.61188986    0.35876992    0.19830000
opls_146-295    H    0.79507995    0.69361010    0.43706004    0.19890000
opls_146-296    H    0.80971987    0.51183021    0.72220947    0.19820000
opls_146-297    H    0.74816997    0.56149975    0.67265956    0.19920000
opls_146-298    H    0.72611011    0.43023993    0.31840962    0.19890000
opls_146-299    H    0.78444004    0.37590978    0.38565015    0.19910000
opls_146-300    H    0.63515008    0.64937022    0.40341952    0.19930000
opls_146-301    H    0.66920998    0.43017016    0.47741021    0.19940000
opls_185-302    H    0.55926002    0.51544004    0.55208952    0.08550000
opls_185-303    H    0.57346990    0.45359998    0.67645040    0.04730000
opls_185-304    H    0.53454990    0.41738982    0.38888964    0.04620000
opls_185-305    H    0.52830990    0.38707001    0.57873008    0.08970000
opls_185-306    H    0.41368002    0.45618992    0.52049014    0.08860000
opls_185-307    H    0.44121993    0.52643996    0.53709042    0.08850000
opls_185-308    H    0.47964994    0.46311986    0.31089995    0.04510000
opls_185-309    H    0.46355007    0.40163982    0.43423013    0.08550000
opls_185-310    H    0.58068988    0.65754001    0.24974008    0.08880000
opls_185-311    H    0.56307984    0.64537001    0.43990008    0.06420000
opls_185-312    H    0.52336004    0.59289005    0.15925038    0.08900000
opls_185-313    H    0.51303998    0.66943999    0.22183027    0.08550000
opls_185-314    H    0.48508008    0.68394003    0.44750990    0.08550000
opls_185-315    H    0.46606001    0.62132985    0.54885003    0.05610000
opls_185-316    H    0.43229015    0.61174021    0.25022054    0.07590000
opls_185-317    H    0.43009003    0.69034005    0.30490031    0.08550000
opls_146-318    H    0.33159015    0.65808005    0.43937011    0.19930000
opls_146-319    H    0.35892006    0.44618007    0.27291948    0.19930000
