#======================================================================
# Crystal Data Generated By AuToFF
#----------------------------------------------------------------------

data_AuToFF_phase_1

_cell_length_a                         27.2690
_cell_length_b                         27.2690
_cell_length_c                         14.2000
_cell_angle_alpha                      90.00
_cell_angle_beta                       90.00
_cell_angle_gamma                      90.00
_symmetry_space_group_name_H-M_alt     'P 1'
_symmetry_space_group_IT_number        1

loop_
_space_group_symop_operation_xyz
   'x, y, z'

loop_
   _atom_site_label
   _atom_site_type_symbol
   _atom_site_fract_x
   _atom_site_fract_y
   _atom_site_fract_z
   _atom_site_charge
opls_145-0    C    0.21483993    0.21483993    0.72879014    -0.07380000
opls_145-1    C    0.23977997    0.23977997    0.65501972    -0.07460000
opls_700-2    C    0.22441014    0.22441014    0.82539014    0.07420000
opls_142-3    C    0.19617991    0.19617991    0.90118028    0.03780000
opls_145-4    C    0.17487000    0.17487000    0.06863028    0.23450000
opls_145-5    C    0.18437016    0.18437016    0.16520986    -0.09590000
opls_145-6    C    0.15917012    0.15917012    0.23935986    -0.07410000
opls_700-7    C    0.12301001    0.12301001    0.22065986    0.07570000
opls_145-8    C    0.11422018    0.11422018    0.12281972    -0.07410000
opls_145-9    C    0.13907001    0.13907001    0.04989014    -0.10800000
opls_700-10    C    0.09437016    0.09437016    0.29880000    0.07570000
opls_145-11    C    0.05951997    0.05951997    0.27176972    -0.09930000
opls_145-12    C    0.03289009    0.03289009    0.33685986    -0.08000000
opls_700-13    C    0.03519014    0.03519014    0.43508028    0.09250000
opls_145-14    C    0.07051010    0.07051010    0.46575986    -0.07680000
opls_145-15    C    0.09941985    0.09941985    0.39938028    -0.07680000
opls_145-16    C    0.78516007    0.78516007    0.72879014    -0.07380000
opls_145-17    C    0.76022003    0.76022003    0.65501972    -0.07450000
opls_700-18    C    0.77558986    0.77558986    0.82539014    0.07420000
opls_142-19    C    0.80382009    0.80382009    0.90118028    0.03780000
opls_145-20    C    0.82513000    0.82513000    0.06863028    0.23440000
opls_145-21    C    0.81562984    0.81562984    0.16520986    -0.09590000
opls_145-22    C    0.84082988    0.84082988    0.23935986    -0.07410000
opls_700-23    C    0.87698999    0.87698999    0.22065986    0.07570000
opls_145-24    C    0.88577982    0.88577982    0.12281972    -0.07410000
opls_145-25    C    0.86092999    0.86092999    0.04989014    -0.10800000
opls_700-26    C    0.90562984    0.90562984    0.29880000    0.07570000
opls_145-27    C    0.94048003    0.94048003    0.27176972    -0.09930000
opls_145-28    C    0.96710991    0.96710991    0.33685986    -0.08000000
opls_700-29    C    0.96480986    0.96480986    0.43508028    0.09240000
opls_145-30    C    0.92948990    0.92948990    0.46575986    -0.07680000
opls_145-31    C    0.90058015    0.90058015    0.39938028    -0.07680000
opls_145-32    C    0.28516007    0.71483993    0.22879014    -0.07380000
opls_145-33    C    0.26022003    0.73977997    0.15501972    -0.07460000
opls_700-34    C    0.27558986    0.72441014    0.32539014    0.07420000
opls_142-35    C    0.30382009    0.69617991    0.40118028    0.03780000
opls_145-36    C    0.32513000    0.67487000    0.56863028    0.23440000
opls_145-37    C    0.31562984    0.68437016    0.66520986    -0.09590000
opls_145-38    C    0.34082988    0.65917012    0.73935986    -0.07410000
opls_700-39    C    0.37698999    0.62301001    0.72065986    0.07570000
opls_145-40    C    0.38577982    0.61422018    0.62281972    -0.07410000
opls_145-41    C    0.36092999    0.63907001    0.54989014    -0.10800000
opls_700-42    C    0.40562984    0.59437016    0.79880000    0.07570000
opls_145-43    C    0.44048003    0.55951997    0.77176972    -0.09930000
opls_145-44    C    0.46710991    0.53289009    0.83685986    -0.08000000
opls_700-45    C    0.46480986    0.53519014    0.93508028    0.09240000
opls_145-46    C    0.42948990    0.57051010    0.96575986    -0.07680000
opls_145-47    C    0.40058015    0.59941985    0.89938028    -0.07680000
opls_145-48    C    0.71483993    0.28516007    0.22879014    -0.07380000
opls_145-49    C    0.73977997    0.26022003    0.15501972    -0.07460000
opls_700-50    C    0.72441014    0.27558986    0.32539014    0.07420000
opls_142-51    C    0.69617991    0.30382009    0.40118028    0.03780000
opls_145-52    C    0.67487000    0.32513000    0.56863028    0.23440000
opls_145-53    C    0.68437016    0.31562984    0.66520986    -0.09590000
opls_145-54    C    0.65917012    0.34082988    0.73935986    -0.07410000
opls_700-55    C    0.62301001    0.37698999    0.72065986    0.07570000
opls_145-56    C    0.61422018    0.38577982    0.62281972    -0.07410000
opls_145-57    C    0.63907001    0.36092999    0.54989014    -0.10800000
opls_700-58    C    0.59437016    0.40562984    0.79880000    0.07570000
opls_145-59    C    0.55951997    0.44048003    0.77176972    -0.09930000
opls_145-60    C    0.53289009    0.46710991    0.83685986    -0.08000000
opls_700-61    C    0.53519014    0.46480986    0.93508028    0.09240000
opls_145-62    C    0.57051010    0.42948990    0.96575986    -0.07680000
opls_145-63    C    0.59941985    0.40058015    0.89938028    -0.07680000
opls_145-64    C    0.78516007    0.21483993    0.27120986    -0.07380000
opls_145-65    C    0.76022003    0.23977997    0.34498028    -0.07460000
opls_700-66    C    0.77558986    0.22441014    0.17460986    0.07420000
opls_142-67    C    0.80382009    0.19617991    0.09881972    0.03780000
opls_145-68    C    0.82513000    0.17487000    0.93136972    0.23440000
opls_145-69    C    0.81562984    0.18437016    0.83479014    -0.09590000
opls_145-70    C    0.84082988    0.15917012    0.76064014    -0.07410000
opls_700-71    C    0.87698999    0.12301001    0.77934014    0.07570000
opls_145-72    C    0.88577982    0.11422018    0.87718028    -0.07410000
opls_145-73    C    0.86092999    0.13907001    0.95010986    -0.10800000
opls_700-74    C    0.90562984    0.09437016    0.70120000    0.07570000
opls_145-75    C    0.94048003    0.05951997    0.72823028    -0.09920000
opls_145-76    C    0.96710991    0.03289009    0.66314014    -0.08000000
opls_700-77    C    0.96480986    0.03519014    0.56491972    0.09240000
opls_145-78    C    0.92948990    0.07051010    0.53424014    -0.07680000
opls_145-79    C    0.90058015    0.09941985    0.60061972    -0.07680000
opls_145-80    C    0.21483993    0.78516007    0.27120986    -0.07380000
opls_145-81    C    0.23977997    0.76022003    0.34498028    -0.07460000
opls_700-82    C    0.22441014    0.77558986    0.17460986    0.07420000
opls_142-83    C    0.19617991    0.80382009    0.09881972    0.03780000
opls_145-84    C    0.17487000    0.82513000    0.93136972    0.23450000
opls_145-85    C    0.18437016    0.81562984    0.83479014    -0.09580000
opls_145-86    C    0.15917012    0.84082988    0.76064014    -0.07410000
opls_700-87    C    0.12301001    0.87698999    0.77934014    0.07570000
opls_145-88    C    0.11422018    0.88577982    0.87718028    -0.07410000
opls_145-89    C    0.13907001    0.86092999    0.95010986    -0.10800000
opls_700-90    C    0.09437016    0.90562984    0.70120000    0.07570000
opls_145-91    C    0.05951997    0.94048003    0.72823028    -0.09930000
opls_145-92    C    0.03289009    0.96710991    0.66314014    -0.08000000
opls_700-93    C    0.03519014    0.96480986    0.56491972    0.09240000
opls_145-94    C    0.07051010    0.92948990    0.53424014    -0.07680000
opls_145-95    C    0.09941985    0.90058015    0.60061972    -0.07680000
opls_145-96    C    0.71483993    0.71483993    0.77120986    -0.07380000
opls_145-97    C    0.73977997    0.73977997    0.84498028    -0.07460000
opls_700-98    C    0.72441014    0.72441014    0.67460986    0.07420000
opls_142-99    C    0.69617991    0.69617991    0.59881972    0.03780000
opls_145-100    C    0.67487000    0.67487000    0.43136972    0.23440000
opls_145-101    C    0.68437016    0.68437016    0.33479014    -0.09590000
opls_145-102    C    0.65917012    0.65917012    0.26064014    -0.07410000
opls_700-103    C    0.62301001    0.62301001    0.27934014    0.07580000
opls_145-104    C    0.61422018    0.61422018    0.37718028    -0.07410000
opls_145-105    C    0.63907001    0.63907001    0.45010986    -0.10800000
opls_700-106    C    0.59437016    0.59437016    0.20120000    0.07570000
opls_145-107    C    0.55951997    0.55951997    0.22823028    -0.09910000
opls_145-108    C    0.53289009    0.53289009    0.16314014    -0.08000000
opls_700-109    C    0.53519014    0.53519014    0.06491972    0.09240000
opls_145-110    C    0.57051010    0.57051010    0.03424014    -0.07680000
opls_145-111    C    0.59941985    0.59941985    0.10061972    -0.07680000
opls_145-112    C    0.28516007    0.28516007    0.77120986    -0.07370000
opls_145-113    C    0.26022003    0.26022003    0.84498028    -0.07460000
opls_700-114    C    0.27558986    0.27558986    0.67460986    0.07420000
opls_142-115    C    0.30382009    0.30382009    0.59881972    0.03780000
opls_145-116    C    0.32513000    0.32513000    0.43136972    0.23440000
opls_145-117    C    0.31562984    0.31562984    0.33479014    -0.09590000
opls_145-118    C    0.34082988    0.34082988    0.26064014    -0.07400000
opls_700-119    C    0.37698999    0.37698999    0.27934014    0.07570000
opls_145-120    C    0.38577982    0.38577982    0.37718028    -0.07410000
opls_145-121    C    0.36092999    0.36092999    0.45010986    -0.10800000
opls_700-122    C    0.40562984    0.40562984    0.20120000    0.07570000
opls_145-123    C    0.44048003    0.44048003    0.22823028    -0.09930000
opls_145-124    C    0.46710991    0.46710991    0.16314014    -0.08000000
opls_700-125    C    0.46480986    0.46480986    0.06491972    0.09240000
opls_145-126    C    0.42948990    0.42948990    0.03424014    -0.07680000
opls_145-127    C    0.40058015    0.40058015    0.10061972    -0.07670000
opls_701-128    C    0.00000000    0.00000000    0.50000000    0.03820000
opls_701-129    C    0.50000000    0.50000000    0.00000000    0.03820000
opls_146-130    H    0.18598995    0.18598995    0.71134014    0.05180000
opls_146-131    H    0.23092009    0.23092009    0.57843028    0.05180000
opls_146-132    H    0.08584987    0.08584987    0.10030000    0.05180000
opls_144-133    H    0.16766988    0.16766988    0.87995986    0.03060000
opls_146-134    H    0.21292017    0.21292017    0.18605000    0.05180000
opls_146-135    H    0.13032014    0.13032014    0.97320986    0.05180000
opls_146-136    H    0.16795995    0.16795995    0.31600986    0.05180000
opls_146-137    H    0.05234002    0.05234002    0.19389014    0.05180000
opls_146-138    H    0.12677986    0.12677986    0.42975986    0.05180000
opls_146-139    H    0.07679013    0.07679013    0.54420986    0.05180000
opls_146-140    H    0.81401005    0.81401005    0.71134014    0.05180000
opls_146-141    H    0.76907991    0.76907991    0.57843028    0.05180000
opls_146-142    H    0.91415013    0.91415013    0.10030000    0.05180000
opls_144-143    H    0.83233012    0.83233012    0.87995986    0.03060000
opls_146-144    H    0.78707983    0.78707983    0.18605000    0.05180000
opls_146-145    H    0.86967986    0.86967986    0.97320986    0.05180000
opls_146-146    H    0.83204005    0.83204005    0.31600986    0.05180000
opls_146-147    H    0.94765998    0.94765998    0.19389014    0.05180000
opls_146-148    H    0.87322014    0.87322014    0.42975986    0.05180000
opls_146-149    H    0.92320987    0.92320987    0.54420986    0.05180000
opls_146-150    H    0.31401005    0.68598995    0.21134014    0.05180000
opls_146-151    H    0.26907991    0.73092009    0.07843028    0.05190000
opls_146-152    H    0.41415013    0.58584987    0.60030000    0.05180000
opls_144-153    H    0.33233012    0.66766988    0.37995986    0.03060000
opls_146-154    H    0.28707983    0.71292017    0.68605000    0.05180000
opls_146-155    H    0.36967986    0.63032014    0.47320986    0.05180000
opls_146-156    H    0.33204005    0.66795995    0.81600986    0.05180000
opls_146-157    H    0.44765998    0.55234002    0.69389014    0.05180000
opls_146-158    H    0.37322014    0.62677986    0.92975986    0.05180000
opls_146-159    H    0.42320987    0.57679013    0.04420986    0.05180000
opls_146-160    H    0.68598995    0.31401005    0.21134014    0.05180000
opls_146-161    H    0.73092009    0.26907991    0.07843028    0.05180000
opls_146-162    H    0.58584987    0.41415013    0.60030000    0.05180000
opls_144-163    H    0.66766988    0.33233012    0.37995986    0.03060000
opls_146-164    H    0.71292017    0.28707983    0.68605000    0.05180000
opls_146-165    H    0.63032014    0.36967986    0.47320986    0.05180000
opls_146-166    H    0.66795995    0.33204005    0.81600986    0.05180000
opls_146-167    H    0.55234002    0.44765998    0.69389014    0.05180000
opls_146-168    H    0.62677986    0.37322014    0.92975986    0.05180000
opls_146-169    H    0.57679013    0.42320987    0.04420986    0.05180000
opls_146-170    H    0.81401005    0.18598995    0.28865986    0.05180000
opls_146-171    H    0.76907991    0.23092009    0.42156972    0.05180000
opls_146-172    H    0.91415013    0.08584987    0.89970000    0.05180000
opls_144-173    H    0.83233012    0.16766988    0.12004014    0.03060000
opls_146-174    H    0.78707983    0.21292017    0.81395000    0.05190000
opls_146-175    H    0.86967986    0.13032014    0.02679014    0.05180000
opls_146-176    H    0.83204005    0.16795995    0.68399014    0.05180000
opls_146-177    H    0.94765998    0.05234002    0.80610986    0.05180000
opls_146-178    H    0.87322014    0.12677986    0.57024014    0.05190000
opls_146-179    H    0.92320987    0.07679013    0.45579014    0.05180000
opls_146-180    H    0.18598995    0.81401005    0.28865986    0.05180000
opls_146-181    H    0.23092009    0.76907991    0.42156972    0.05180000
opls_146-182    H    0.08584987    0.91415013    0.89970000    0.05180000
opls_144-183    H    0.16766988    0.83233012    0.12004014    0.03060000
opls_146-184    H    0.21292017    0.78707983    0.81395000    0.05180000
opls_146-185    H    0.13032014    0.86967986    0.02679014    0.05180000
opls_146-186    H    0.16795995    0.83204005    0.68399014    0.05180000
opls_146-187    H    0.05234002    0.94765998    0.80610986    0.05180000
opls_146-188    H    0.12677986    0.87322014    0.57024014    0.05180000
opls_146-189    H    0.07679013    0.92320987    0.45579014    0.05180000
opls_146-190    H    0.68598995    0.68598995    0.78865986    0.05180000
opls_146-191    H    0.73092009    0.73092009    0.92156972    0.05180000
opls_146-192    H    0.58584987    0.58584987    0.39970000    0.05180000
opls_144-193    H    0.66766988    0.66766988    0.62004014    0.03070000
opls_146-194    H    0.71292017    0.71292017    0.31395000    0.05180000
opls_146-195    H    0.63032014    0.63032014    0.52679014    0.05180000
opls_146-196    H    0.66795995    0.66795995    0.18399014    0.05180000
opls_146-197    H    0.55234002    0.55234002    0.30610986    0.05180000
opls_146-198    H    0.62677986    0.62677986    0.07024014    0.05180000
opls_146-199    H    0.57679013    0.57679013    0.95579014    0.05180000
opls_146-200    H    0.31401005    0.31401005    0.78865986    0.05180000
opls_146-201    H    0.26907991    0.26907991    0.92156972    0.05180000
opls_146-202    H    0.41415013    0.41415013    0.39970000    0.05180000
opls_144-203    H    0.33233012    0.33233012    0.62004014    0.03060000
opls_146-204    H    0.28707983    0.28707983    0.31395000    0.05180000
opls_146-205    H    0.36967986    0.36967986    0.52679014    0.05180000
opls_146-206    H    0.33204005    0.33204005    0.18399014    0.05190000
opls_146-207    H    0.44765998    0.44765998    0.30610986    0.05180000
opls_146-208    H    0.37322014    0.37322014    0.07024014    0.05180000
opls_146-209    H    0.42320987    0.42320987    0.95579014    0.05180000
opls_144-210    H    0.00478015    0.00478015    0.31203028    -0.09170000
opls_144-211    H    0.99521985    0.99521985    0.31203028    -0.09170000
opls_144-212    H    0.49521985    0.50478015    0.81203028    -0.09160000
opls_144-213    H    0.50478015    0.49521985    0.81203028    -0.09170000
opls_144-214    H    0.99521985    0.00478015    0.68796972    -0.09170000
opls_144-215    H    0.00478015    0.99521985    0.68796972    -0.09170000
opls_144-216    H    0.50478015    0.50478015    0.18796972    -0.09170000
opls_144-217    H    0.49521985    0.49521985    0.18796972    -0.09170000
opls_750-218    N    0.20147017    0.20147017    0.99335986    -0.17160000
opls_750-219    N    0.79852983    0.79852983    0.99335986    -0.17170000
opls_750-220    N    0.29852983    0.70147017    0.49335986    -0.17170000
opls_750-221    N    0.70147017    0.29852983    0.49335986    -0.17170000
opls_750-222    N    0.79852983    0.20147017    0.00664014    -0.17160000
opls_750-223    N    0.20147017    0.79852983    0.00664014    -0.17170000
opls_750-224    N    0.70147017    0.70147017    0.50664014    -0.17170000
opls_750-225    N    0.29852983    0.29852983    0.50664014    -0.17170000
