#======================================================================
# Crystal Data Generated By AuToFF
#----------------------------------------------------------------------

data_AuToFF_phase_1

_cell_length_a                         29.3729
_cell_length_b                         29.3729
_cell_length_c                         3.4420
_cell_angle_alpha                      90.00
_cell_angle_beta                       90.00
_cell_angle_gamma                      120.00
_symmetry_space_group_name_H-M_alt     'P 1'
_symmetry_space_group_IT_number        1

loop_
_space_group_symop_operation_xyz
   'x, y, z'

loop_
   _atom_site_label
   _atom_site_type_symbol
   _atom_site_fract_x
   _atom_site_fract_y
   _atom_site_fract_z
   _atom_site_charge
opls_145-0    C    0.94720993    0.46458010    0.56104009    -0.11340000
opls_145-1    C    0.98289010    0.44788990    0.54619117    -0.24350000
opls_166-2    C    0.03565003    0.48270990    0.52977048    0.19470000
opls_234-3    C    0.89223992    0.42563001    0.59629866    0.37230000
opls_142-4    C    0.77249990    0.41055002    0.91156886    0.02800000
opls_145-5    C    0.71850985    0.37084986    0.92687972    0.01450000
opls_145-6    C    0.70396979    0.31893986    0.92902092    -0.14170000
opls_182-7    C    0.94412010    0.58273003    0.31728065    0.05650000
opls_145-8    C    0.05279007    0.53541990    0.56104009    -0.11340000
opls_145-9    C    0.01710990    0.55211010    0.54619117    -0.24350000
opls_166-10    C    0.96434997    0.51729010    0.52977048    0.19460000
opls_234-11    C    0.10776008    0.57436999    0.59629866    0.37240000
opls_142-12    C    0.22750010    0.58944998    0.91156886    0.02800000
opls_145-13    C    0.28148996    0.62914975    0.92687972    0.01450000
opls_145-14    C    0.29603001    0.68105975    0.92902092    -0.14160000
opls_182-15    C    0.05587990    0.41726997    0.31728065    0.05650000
opls_136-16    C    0.58555991    0.68856004    0.18807960    -0.19100000
opls_135-17    C    0.63907003    0.72937980    0.05534863    -0.42920000
opls_136-18    C    0.41444009    0.31143996    0.18807960    -0.19100000
opls_135-19    C    0.36092978    0.27061980    0.05534863    -0.42920000
opls_145-20    C    0.53542016    0.48263010    0.56104009    -0.11340000
opls_145-21    C    0.55210999    0.53500005    0.54619117    -0.24350000
opls_166-22    C    0.51728992    0.55293997    0.52977048    0.19460000
opls_234-23    C    0.57436995    0.46660977    0.59629866    0.37230000
opls_142-24    C    0.58945019    0.36195007    0.91156886    0.02800000
opls_145-25    C    0.62914996    0.34765985    0.92687972    0.01450000
opls_145-26    C    0.68105988    0.38503000    0.92902092    -0.14170000
opls_182-27    C    0.41726981    0.36138988    0.31728065    0.05650000
opls_145-28    C    0.46457984    0.51736990    0.56104009    -0.11340000
opls_145-29    C    0.44789001    0.46499995    0.54619117    -0.24350000
opls_166-30    C    0.48271008    0.44706003    0.52977048    0.19460000
opls_234-31    C    0.42562986    0.53338984    0.59629866    0.37230000
opls_142-32    C    0.41054981    0.63804993    0.91156886    0.02800000
opls_145-33    C    0.37084984    0.65233976    0.92687972    0.01450000
opls_145-34    C    0.31894012    0.61497000    0.92902092    -0.14170000
opls_182-35    C    0.58273019    0.63861012    0.31728065    0.05650000
opls_136-36    C    0.31144001    0.89700004    0.18807960    -0.19100000
opls_135-37    C    0.27062002    0.90968988    0.05534863    -0.42920000
opls_136-38    C    0.68855999    0.10299996    0.18807960    -0.19100000
opls_135-39    C    0.72937998    0.09031012    0.05534863    -0.42920000
opls_145-40    C    0.51736991    0.05278980    0.56104009    -0.11340000
opls_145-41    C    0.46499991    0.01711005    0.54619117    -0.24350000
opls_166-42    C    0.44705985    0.96434974    0.52977048    0.19460000
opls_234-43    C    0.53338994    0.10775983    0.59629866    0.37230000
opls_142-44    C    0.63804991    0.22749991    0.91156886    0.02800000
opls_145-45    C    0.65233999    0.28148990    0.92687972    0.01450000
opls_145-46    C    0.61496998    0.29603014    0.92902092    -0.14170000
opls_182-47    C    0.63861009    0.05588010    0.31728065    0.05650000
opls_145-48    C    0.48262989    0.94720981    0.56104009    -0.11340000
opls_145-49    C    0.53500009    0.98288995    0.54619117    -0.24350000
opls_166-50    C    0.55293996    0.03564987    0.52977048    0.19460000
opls_234-51    C    0.46660987    0.89223978    0.59629866    0.37230000
opls_142-52    C    0.36195009    0.77250009    0.91156886    0.02800000
opls_145-53    C    0.34766001    0.71851010    0.92687972    0.01450000
opls_145-54    C    0.38503002    0.70396986    0.92902092    -0.14170000
opls_182-55    C    0.36138991    0.94411990    0.31728065    0.05650000
opls_136-56    C    0.10300008    0.41443992    0.18807960    -0.19090000
opls_135-57    C    0.09031009    0.36092993    0.05534863    -0.42920000
opls_136-58    C    0.89699992    0.58556008    0.18807960    -0.19100000
opls_135-59    C    0.90968991    0.63907007    0.05534863    -0.42910000
opls_238-60    N    0.85822994    0.43662983    0.77271935    -0.25130000
opls_750-61    N    0.80650999    0.39942990    0.79481987    -0.07320000
opls_238-62    N    0.14176986    0.56336977    0.77271935    -0.25140000
opls_750-63    N    0.19349001    0.60057010    0.79481987    -0.07320000
opls_238-64    N    0.56336977    0.42159977    0.77271935    -0.25140000
opls_750-65    N    0.60056990    0.40707997    0.79481987    -0.07320000
opls_238-66    N    0.43663003    0.57839984    0.77271935    -0.25140000
opls_750-67    N    0.39943010    0.59292003    0.79481987    -0.07320000
opls_238-68    N    0.57840009    0.14177000    0.77271935    -0.25140000
opls_750-69    N    0.59292011    0.19349013    0.79481987    -0.07320000
opls_238-70    N    0.42159991    0.85823000    0.77271935    -0.25140000
opls_750-71    N    0.40707989    0.80650987    0.79481987    -0.07320000
opls_236-72    O    0.87730002    0.38251012    0.47226031    -0.42350000
opls_179-73    O    0.92813020    0.53333008    0.48090064    -0.19950000
opls_236-74    O    0.12269998    0.61748988    0.47226031    -0.42330000
opls_179-75    O    0.07186980    0.46666992    0.48090064    -0.19960000
opls_236-76    O    0.61748989    0.49479001    0.47226031    -0.42340000
opls_179-77    O    0.46667005    0.39480015    0.48090064    -0.19960000
opls_236-78    O    0.38251011    0.50520999    0.47226031    -0.42340000
opls_179-79    O    0.53332995    0.60519985    0.48090064    -0.19960000
opls_236-80    O    0.50521009    0.12269987    0.47226031    -0.42350000
opls_179-81    O    0.60519994    0.07187015    0.48090064    -0.19960000
opls_236-82    O    0.49478971    0.87729974    0.47226031    -0.42340000
opls_179-83    O    0.39480006    0.92812985    0.48090064    -0.19960000
opls_146-84    H    0.96920004    0.40733982    0.55305055    0.21370000
opls_910-85    H    0.87054987    0.47160983    0.91208890    0.22110000
opls_144-86    H    0.78347999    0.44968999    0.98262057    0.10450000
opls_146-87    H    0.69240997    0.42515984    0.92665892    0.21380000
opls_146-88    H    0.03078989    0.59265979    0.55305055    0.21370000
opls_910-89    H    0.12944994    0.52838977    0.91208890    0.22110000
opls_144-90    H    0.21652001    0.55031001    0.98262057    0.10450000
opls_146-91    H    0.30758984    0.57483977    0.92665892    0.21390000
opls_185-92    H    0.97001000    0.58915986    0.07149041    0.07570000
opls_185-93    H    0.96762992    0.61433000    0.51796049    0.08060000
opls_185-94    H    0.02999000    0.41084014    0.07149041    0.07570000
opls_185-95    H    0.03237008    0.38567000    0.51796049    0.08060000
opls_140-96    H    0.57334012    0.70647991    0.41110110    0.08390000
opls_140-97    H    0.55588983    0.67839992    0.96441023    0.08670000
opls_140-98    H    0.65835992    0.71287004    0.88348925    0.10420000
opls_140-99    H    0.66472995    0.74910998    0.30536897    0.10650000
opls_140-100    H    0.63630009    0.75936996    0.88694945    0.10960000
opls_140-101    H    0.42665988    0.29352009    0.41110110    0.08390000
opls_140-102    H    0.44411017    0.32160008    0.96441023    0.08670000
opls_140-103    H    0.36369991    0.24063004    0.88694945    0.10960000
opls_140-104    H    0.34164008    0.28712996    0.88348925    0.10420000
opls_140-105    H    0.33527005    0.25089002    0.30536897    0.10650000
opls_146-106    H    0.59265976    0.56185981    0.55305055    0.21370000
opls_910-107    H    0.52838989    0.39894008    0.91208890    0.22110000
opls_144-108    H    0.55030992    0.33378987    0.98262057    0.10460000
opls_146-109    H    0.57483986    0.26725000    0.92665892    0.21380000
opls_146-110    H    0.40733989    0.43812997    0.55305055    0.21370000
opls_910-111    H    0.47161011    0.60105992    0.91208890    0.22110000
opls_144-112    H    0.44969008    0.66621013    0.98262057    0.10450000
opls_146-113    H    0.42516014    0.73275000    0.92665892    0.21390000
opls_185-114    H    0.41084007    0.38084998    0.07149041    0.07570000
opls_185-115    H    0.38566983    0.35329991    0.51796049    0.08060000
opls_185-116    H    0.58915993    0.61915002    0.07149041    0.07570000
opls_185-117    H    0.61433017    0.64670009    0.51796049    0.08060000
opls_140-118    H    0.29352014    0.86686011    0.41110110    0.08390000
opls_140-119    H    0.32159995    0.87749001    0.96441023    0.08670000
opls_140-120    H    0.28712999    0.94548992    0.88348925    0.10420000
opls_140-121    H    0.25089004    0.91562006    0.30536897    0.10650000
opls_140-122    H    0.24062983    0.87692981    0.88694945    0.10960000
opls_140-123    H    0.70647986    0.13313989    0.41110110    0.08390000
opls_140-124    H    0.67840005    0.12250999    0.96441023    0.08670000
opls_140-125    H    0.75936998    0.12306979    0.88694945    0.10960000
opls_140-126    H    0.71287001    0.05451008    0.88348925    0.10420000
opls_140-127    H    0.74910996    0.08437994    0.30536897    0.10650000
opls_146-128    H    0.43814000    0.03079998    0.55305055    0.21380000
opls_910-129    H    0.60105990    0.12945009    0.91208890    0.22110000
opls_144-130    H    0.66621008    0.21652014    0.98262057    0.10450000
opls_146-131    H    0.73275017    0.30759016    0.92665892    0.21380000
opls_146-132    H    0.56187002    0.96920985    0.55305055    0.21380000
opls_910-133    H    0.39894010    0.87054991    0.91208890    0.22110000
opls_144-134    H    0.33378992    0.78347986    0.98262057    0.10450000
opls_146-135    H    0.26724983    0.69240984    0.92665892    0.21380000
opls_185-136    H    0.61914993    0.02999016    0.07149041    0.07570000
opls_185-137    H    0.64669991    0.03237009    0.51796049    0.08060000
opls_185-138    H    0.38085007    0.97000984    0.07149041    0.07570000
opls_185-139    H    0.35330009    0.96762991    0.51796049    0.08060000
opls_140-140    H    0.13314009    0.42665998    0.41110110    0.08400000
opls_140-141    H    0.12250988    0.44411008    0.96441023    0.08670000
opls_140-142    H    0.05451009    0.34164004    0.88348925    0.10420000
opls_140-143    H    0.08438001    0.33526996    0.30536897    0.10650000
opls_140-144    H    0.12306989    0.36369983    0.88694945    0.10960000
opls_140-145    H    0.86685991    0.57334002    0.41110110    0.08390000
opls_140-146    H    0.87749012    0.55588992    0.96441023    0.08670000
opls_140-147    H    0.87692992    0.63629977    0.88694945    0.10960000
opls_140-148    H    0.94548991    0.65835996    0.88348925    0.10420000
opls_140-149    H    0.91561999    0.66473004    0.30536897    0.10650000
