#======================================================================
# Crystal Data Generated By AuToFF
#----------------------------------------------------------------------

data_AuToFF_phase_1

_cell_length_a                         44.4730
_cell_length_b                         44.4730
_cell_length_c                         3.5460
_cell_angle_alpha                      90.00
_cell_angle_beta                       90.00
_cell_angle_gamma                      120.00
_symmetry_space_group_name_H-M_alt     'P 1'
_symmetry_space_group_IT_number        1

loop_
_space_group_symop_operation_xyz
   'x, y, z'

loop_
   _atom_site_label
   _atom_site_type_symbol
   _atom_site_fract_x
   _atom_site_fract_y
   _atom_site_fract_z
   _atom_site_charge
opls_145-0    C    0.31991999    0.68829994    0.50000000    -0.15250000
opls_700-1    C    0.29722992    0.65284988    0.50000000    0.06110000
opls_700-2    C    0.37939997    0.74129989    0.50000000    0.05770000
opls_145-3    C    0.41535992    0.75607994    0.50000000    -0.22960000
opls_145-4    C    0.43704002    0.79133994    0.50000000    -0.23010000
opls_700-5    C    0.42390015    0.81336008    0.50000000    0.04910000
opls_145-6    C    0.38861004    0.79955004    0.50000000    -0.22970000
opls_145-7    C    0.36676006    0.76431004    0.50000000    -0.22960000
opls_142-8    C    0.44733007    0.85052999    0.50000000    0.08930000
opls_145-9    C    0.45303012    0.54498004    0.50000000    0.17310000
opls_145-10    C    0.43588005    0.50927995    0.50000000    -0.23810000
opls_145-11    C    0.45406004    0.49185987    0.50000000    -0.22960000
opls_700-12    C    0.49011985    0.50943989    0.50000000    0.05500000
opls_145-13    C    0.50681994    0.54546998    0.50000000    -0.22970000
opls_145-14    C    0.48847005    0.56270000    0.50000000    -0.23810000
opls_145-15    C    0.31170001    0.63161983    0.50000000    -0.15250000
opls_700-16    C    0.34715003    0.64437988    0.50000000    0.06110000
opls_700-17    C    0.25869987    0.63809995    0.50000000    0.05770000
opls_145-18    C    0.24391984    0.65927989    0.50000000    -0.22960000
opls_145-19    C    0.20865999    0.64569989    0.50000000    -0.23010000
opls_700-20    C    0.18663997    0.61053986    0.50000000    0.04910000
opls_145-21    C    0.20045001    0.58906004    0.50000000    -0.22970000
opls_145-22    C    0.23568994    0.60244997    0.50000000    -0.22960000
opls_142-23    C    0.14947005    0.59679993    0.50000000    0.08930000
opls_145-24    C    0.45502000    0.90805003    0.50000000    0.17310000
opls_145-25    C    0.49072004    0.92660007    0.50000000    -0.23810000
opls_145-26    C    0.50813997    0.96219994    0.50000000    -0.22960000
opls_700-27    C    0.49055984    0.98067987    0.50000000    0.05500000
opls_145-28    C    0.45452986    0.96134987    0.50000000    -0.22970000
opls_145-29    C    0.43730004    0.92577000    0.50000000    -0.23810000
opls_145-30    C    0.36837988    0.68007997    0.50000000    -0.15250000
opls_700-31    C    0.35561992    0.70276998    0.50000000    0.05980000
opls_700-32    C    0.36190002    0.62059990    0.50000000    0.05770000
opls_145-33    C    0.34071988    0.58463991    0.50000000    -0.22960000
opls_145-34    C    0.35429987    0.56295990    0.50000000    -0.23010000
opls_700-35    C    0.38946010    0.57610007    0.50000000    0.04910000
opls_145-36    C    0.41093994    0.61138992    0.50000000    -0.22970000
opls_145-37    C    0.39755000    0.63323999    0.50000000    -0.22960000
opls_142-38    C    0.40320010    0.55267008    0.50000000    0.08930000
opls_145-39    C    0.09194987    0.54696993    0.50000000    0.17310000
opls_145-40    C    0.07339990    0.56411998    0.50000000    -0.23810000
opls_145-41    C    0.03779986    0.54593993    0.50000000    -0.22960000
opls_700-42    C    0.01931995    0.50987998    0.50000000    0.05500000
opls_145-43    C    0.03864984    0.49317989    0.50000000    -0.22970000
opls_145-44    C    0.07422991    0.51153000    0.50000000    -0.23810000
opls_145-45    C    0.68008001    0.31170006    0.50000000    -0.15250000
opls_700-46    C    0.70276995    0.34714986    0.50000000    0.06110000
opls_700-47    C    0.62060003    0.25870011    0.50000000    0.05770000
opls_145-48    C    0.58464008    0.24392006    0.50000000    -0.22960000
opls_145-49    C    0.56295998    0.20866006    0.50000000    -0.23010000
opls_700-50    C    0.57609985    0.18663992    0.50000000    0.04910000
opls_145-51    C    0.61138996    0.20044996    0.50000000    -0.22970000
opls_145-52    C    0.63323994    0.23568996    0.50000000    -0.22960000
opls_142-53    C    0.55266993    0.14947001    0.50000000    0.08930000
opls_145-54    C    0.54696988    0.45501996    0.50000000    0.17310000
opls_145-55    C    0.56411995    0.49072005    0.50000000    -0.23810000
opls_145-56    C    0.54593983    0.50813987    0.50000000    -0.22960000
opls_700-57    C    0.50988002    0.49055985    0.50000000    0.05500000
opls_145-58    C    0.49318006    0.45453002    0.50000000    -0.22970000
opls_145-59    C    0.51152995    0.43730000    0.50000000    -0.23810000
opls_145-60    C    0.68829986    0.36837991    0.50000000    -0.15250000
opls_700-61    C    0.65284984    0.35561986    0.50000000    0.06110000
opls_700-62    C    0.74130013    0.36190005    0.50000000    0.05770000
opls_145-63    C    0.75608003    0.34071985    0.50000000    -0.22960000
opls_145-64    C    0.79134001    0.35430011    0.50000000    -0.23010000
opls_700-65    C    0.81335990    0.38945988    0.50000000    0.04920000
opls_145-66    C    0.79954999    0.41093996    0.50000000    -0.22970000
opls_145-67    C    0.76431006    0.39755003    0.50000000    -0.22960000
opls_142-68    C    0.85052995    0.40320007    0.50000000    0.08930000
opls_145-69    C    0.54498000    0.09194997    0.50000000    0.17310000
opls_145-70    C    0.50927996    0.07339993    0.50000000    -0.23810000
opls_145-71    C    0.49186003    0.03780006    0.50000000    -0.22950000
opls_700-72    C    0.50944003    0.01931987    0.50000000    0.05500000
opls_145-73    C    0.54547001    0.03864987    0.50000000    -0.22970000
opls_145-74    C    0.56269996    0.07423000    0.50000000    -0.23800000
opls_145-75    C    0.63162012    0.31992003    0.50000000    -0.15250000
opls_700-76    C    0.64438008    0.29723002    0.50000000    0.05980000
opls_700-77    C    0.63809998    0.37940010    0.50000000    0.05770000
opls_145-78    C    0.65928012    0.41536009    0.50000000    -0.22960000
opls_145-79    C    0.64570013    0.43704010    0.50000000    -0.23010000
opls_700-80    C    0.61053990    0.42389993    0.50000000    0.04910000
opls_145-81    C    0.58906006    0.38861008    0.50000000    -0.22970000
opls_145-82    C    0.60245000    0.36676001    0.50000000    -0.22960000
opls_142-83    C    0.59679990    0.44732992    0.50000000    0.08930000
opls_145-84    C    0.90805013    0.45303007    0.50000000    0.17310000
opls_145-85    C    0.92660010    0.43588002    0.50000000    -0.23810000
opls_145-86    C    0.96220014    0.45406007    0.50000000    -0.22960000
opls_700-87    C    0.98068005    0.49012002    0.50000000    0.05500000
opls_145-88    C    0.96135003    0.50681985    0.50000000    -0.22970000
opls_145-89    C    0.92577009    0.48847000    0.50000000    -0.23800000
opls_750-90    N    0.43560998    0.87147989    0.50000000    -0.32590000
opls_750-91    N    0.12851985    0.56412985    0.50000000    -0.32590000
opls_750-92    N    0.43587004    0.56439001    0.50000000    -0.32590000
opls_750-93    N    0.56439002    0.12852011    0.50000000    -0.32600000
opls_750-94    N    0.87148002    0.43586989    0.50000000    -0.32600000
opls_750-95    N    0.56412996    0.43560999    0.50000000    -0.32590000
opls_146-96    H    0.30970988    0.70477986    0.50000000    0.19450000
opls_146-97    H    0.42792996    0.74135000    0.50000000    0.19450000
opls_146-98    H    0.46430000    0.80146983    0.50000000    0.19540000
opls_146-99    H    0.37789000    0.81616991    0.50000000    0.19540000
opls_146-100    H    0.34011992    0.75625001    0.50000000    0.19450000
opls_144-101    H    0.47433004    0.85962988    0.50000000    0.09480000
opls_146-102    H    0.40849008    0.49441006    0.50000000    0.19450000
opls_146-103    H    0.43900990    0.46455994    0.50000000    0.19450000
opls_146-104    H    0.53406011    0.56120006    0.50000000    0.19450000
opls_146-105    H    0.50192002    0.59022998    0.50000000    0.19540000
opls_146-106    H    0.29521996    0.60493006    0.50000000    0.19450000
opls_146-107    H    0.25865014    0.68658008    0.50000000    0.19450000
opls_146-108    H    0.19853008    0.66282995    0.50000000    0.19540000
opls_146-109    H    0.18382982    0.56171986    0.50000000    0.19540000
opls_146-110    H    0.24375007    0.58387008    0.50000000    0.19450000
opls_144-111    H    0.14037008    0.61470008    0.50000000    0.09480000
opls_146-112    H    0.50558987    0.91407993    0.50000000    0.19440000
opls_146-113    H    0.53544012    0.97445005    0.50000000    0.19460000
opls_146-114    H    0.43879998    0.97286001    0.50000000    0.19450000
opls_146-115    H    0.40977005    0.91168994    0.50000000    0.19540000
opls_146-116    H    0.39506994    0.69029008    0.50000000    0.19450000
opls_146-117    H    0.31341989    0.57206992    0.50000000    0.19450000
opls_146-118    H    0.33717002    0.53569996    0.50000000    0.19540000
opls_146-119    H    0.43828004    0.62210997    0.50000000    0.19540000
opls_146-120    H    0.41613001    0.65987992    0.50000000    0.19450000
opls_144-121    H    0.38530011    0.52567004    0.50000000    0.09480000
opls_146-122    H    0.08592005    0.59151001    0.50000000    0.19440000
opls_146-123    H    0.02554998    0.56099001    0.50000000    0.19450000
opls_146-124    H    0.02713991    0.46593993    0.50000000    0.19460000
opls_146-125    H    0.08830994    0.49808009    0.50000000    0.19540000
opls_146-126    H    0.69028999    0.29521988    0.50000000    0.19450000
opls_146-127    H    0.57207004    0.25865000    0.50000000    0.19450000
opls_146-128    H    0.53569987    0.19852991    0.50000000    0.19540000
opls_146-129    H    0.62211000    0.18383009    0.50000000    0.19540000
opls_146-130    H    0.65988008    0.24374999    0.50000000    0.19450000
opls_144-131    H    0.52566996    0.14037012    0.50000000    0.09480000
opls_146-132    H    0.59150992    0.50558994    0.50000000    0.19440000
opls_146-133    H    0.56099010    0.53544006    0.50000000    0.19450000
opls_146-134    H    0.46593989    0.43879994    0.50000000    0.19450000
opls_146-135    H    0.49807998    0.40977002    0.50000000    0.19540000
opls_146-136    H    0.70478004    0.39506994    0.50000000    0.19450000
opls_146-137    H    0.74134986    0.31341992    0.50000000    0.19450000
opls_146-138    H    0.80146992    0.33717005    0.50000000    0.19540000
opls_146-139    H    0.81617005    0.43827988    0.50000000    0.19550000
opls_146-140    H    0.75624993    0.41612992    0.50000000    0.19450000
opls_144-141    H    0.85962992    0.38529992    0.50000000    0.09480000
opls_146-142    H    0.49441013    0.08592007    0.50000000    0.19440000
opls_146-143    H    0.46455988    0.02554995    0.50000000    0.19450000
opls_146-144    H    0.56120002    0.02713999    0.50000000    0.19460000
opls_146-145    H    0.59022995    0.08831006    0.50000000    0.19540000
opls_146-146    H    0.60493006    0.30970992    0.50000000    0.19450000
opls_146-147    H    0.68658011    0.42793008    0.50000000    0.19450000
opls_146-148    H    0.66282998    0.46430004    0.50000000    0.19540000
opls_146-149    H    0.56171996    0.37789003    0.50000000    0.19540000
opls_146-150    H    0.58386999    0.34012008    0.50000000    0.19460000
opls_144-151    H    0.61469989    0.47432996    0.50000000    0.09480000
opls_146-152    H    0.91407995    0.40848999    0.50000000    0.19440000
opls_146-153    H    0.97445002    0.43900999    0.50000000    0.19450000
opls_146-154    H    0.97286009    0.53406007    0.50000000    0.19450000
opls_146-155    H    0.91169006    0.50191991    0.50000000    0.19540000
