#======================================================================
# Crystal Data Generated By AuToFF
#----------------------------------------------------------------------

data_AuToFF_phase_1

_cell_length_a                         40.5500
_cell_length_b                         39.0800
_cell_length_c                         3.6000
_cell_angle_alpha                      90.00
_cell_angle_beta                       90.00
_cell_angle_gamma                      90.00
_symmetry_space_group_name_H-M_alt     'P 1'
_symmetry_space_group_IT_number        1

loop_
_space_group_symop_operation_xyz
   'x, y, z'

loop_
   _atom_site_label
   _atom_site_type_symbol
   _atom_site_fract_x
   _atom_site_fract_y
   _atom_site_fract_z
   _atom_site_charge
opls_700-0    C    0.96972996    0.46341991    0.01303056    0.03100000
opls_700-1    C    0.03027004    0.53658009    0.01303056    0.03100000
opls_700-2    C    0.03027004    0.46341991    0.98696944    0.03100000
opls_700-3    C    0.96972996    0.53658009    0.98696944    0.03100000
opls_700-4    C    0.46974007    0.96345010    0.01430000    0.03100000
opls_700-5    C    0.53025993    0.03653992    0.01430000    0.03100000
opls_700-6    C    0.53025993    0.96345010    0.98570000    0.03100000
opls_700-7    C    0.46974007    0.03653992    0.98570000    0.03100000
opls_145-8    C    0.94050999    0.51761003    0.00820000    -0.17170000
opls_145-9    C    0.05949001    0.48238997    0.00820000    -0.17160000
opls_145-10    C    0.05949001    0.51761003    0.99180000    -0.17170000
opls_145-11    C    0.94050999    0.48238997    0.99180000    -0.17170000
opls_145-12    C    0.44047004    0.01762001    0.00815000    -0.17000000
opls_145-13    C    0.55952996    0.98237999    0.00815000    -0.17000000
opls_145-14    C    0.55952996    0.01762001    0.99185000    -0.17000000
opls_145-15    C    0.44047004    0.98237999    0.99185000    -0.17000000
opls_700-16    C    0.96956991    0.57513997    0.96561944    0.03550000
opls_700-17    C    0.03043009    0.42486003    0.96561944    0.03550000
opls_700-18    C    0.03043009    0.57513997    0.03438056    0.03550000
opls_700-19    C    0.96956991    0.42486003    0.03438056    0.03550000
opls_700-20    C    0.46965993    0.07509007    0.96111111    0.03690000
opls_700-21    C    0.53034007    0.92490993    0.96111111    0.04050000
opls_700-22    C    0.53034007    0.07509007    0.03888889    0.03690000
opls_700-23    C    0.46965993    0.92490993    0.03888889    0.04050000
opls_700-24    C    0.94076005    0.59564995    0.90270000    0.06200000
opls_700-25    C    0.05923995    0.40435005    0.90270000    0.06200000
opls_700-26    C    0.05923995    0.59564995    0.09730000    0.06210000
opls_700-27    C    0.94076005    0.40435005    0.09730000    0.06200000
opls_700-28    C    0.44100000    0.09570010    0.89678889    0.06200000
opls_700-29    C    0.55900000    0.90430988    0.89678889    0.06190000
opls_700-30    C    0.55900000    0.09570010    0.10321111    0.06200000
opls_700-31    C    0.44100000    0.90430988    0.10321111    0.06190000
opls_145-32    C    0.91181998    0.58276996    0.69010000    -0.13230000
opls_145-33    C    0.08818002    0.41723004    0.69010000    -0.13240000
opls_145-34    C    0.08818002    0.58276996    0.30990000    -0.13240000
opls_145-35    C    0.91181998    0.41723004    0.30990000    -0.13240000
opls_145-36    C    0.41358002    0.08379990    0.69473056    -0.13100000
opls_145-37    C    0.58641998    0.91620010    0.69473056    -0.12700000
opls_145-38    C    0.58641998    0.08379990    0.30526944    -0.13100000
opls_145-39    C    0.41358002    0.91620010    0.30526944    -0.12700000
opls_145-40    C    0.88496991    0.60194012    0.63950000    -0.17010000
opls_145-41    C    0.11503009    0.39805988    0.63950000    -0.17010000
opls_145-42    C    0.11503009    0.60194012    0.36050000    -0.17010000
opls_145-43    C    0.88496991    0.39805988    0.36050000    -0.17010000
opls_145-44    C    0.38587004    0.10413997    0.63316944    -0.18970000
opls_145-45    C    0.61412996    0.89586003    0.63316944    -0.18970000
opls_145-46    C    0.61412996    0.10413997    0.36683056    -0.18970000
opls_145-47    C    0.38587004    0.89586003    0.36683056    -0.18970000
opls_145-48    C    0.88441011    0.63769012    0.76273056    0.19350000
opls_145-49    C    0.11558989    0.36230988    0.76273056    0.19350000
opls_145-50    C    0.11558989    0.63769012    0.23726944    0.19350000
opls_145-51    C    0.88441011    0.36230988    0.23726944    0.19350000
opls_145-52    C    0.38538989    0.13825998    0.74121944    0.19430000
opls_145-53    C    0.61461011    0.86174002    0.74121944    0.19430000
opls_145-54    C    0.61461011    0.13825998    0.25878056    0.19430000
opls_145-55    C    0.38538989    0.86174002    0.25878056    0.19430000
opls_145-56    C    0.91174007    0.65073004    0.95330000    -0.15390000
opls_145-57    C    0.08825993    0.34926996    0.95330000    -0.15390000
opls_145-58    C    0.08825993    0.65073004    0.04670000    -0.15390000
opls_145-59    C    0.91174007    0.34926996    0.04670000    -0.15390000
opls_145-60    C    0.41396991    0.15220010    0.94691944    -0.18020000
opls_145-61    C    0.58603009    0.84779990    0.94691944    -0.18070000
opls_145-62    C    0.58603009    0.15220010    0.05308056    -0.18020000
opls_145-63    C    0.41396991    0.84779990    0.05308056    -0.18070000
opls_145-64    C    0.93883995    0.62996008    0.02953056    -0.13220000
opls_145-65    C    0.06116005    0.37003992    0.02953056    -0.13220000
opls_145-66    C    0.06116005    0.62996008    0.97046944    -0.13220000
opls_145-67    C    0.93883995    0.37003992    0.97046944    -0.13220000
opls_145-68    C    0.43950012    0.13205988    0.02870000    -0.18370000
opls_145-69    C    0.56050012    0.86795010    0.02870000    -0.18370000
opls_145-70    C    0.56050012    0.13205988    0.97130000    -0.18370000
opls_145-71    C    0.43950012    0.86795010    0.97130000    -0.18370000
opls_142-72    C    0.85414007    0.69108009    0.71448889    -0.00650000
opls_142-73    C    0.14585993    0.30891991    0.71448889    -0.00650000
opls_142-74    C    0.14585993    0.69108009    0.28551111    -0.00650000
opls_142-75    C    0.85414007    0.30891991    0.28551111    -0.00650000
opls_142-76    C    0.35618989    0.19187001    0.68143889    0.04970000
opls_142-77    C    0.64381998    0.80812999    0.68143889    0.05230000
opls_142-78    C    0.64381998    0.19187001    0.31856111    0.05230000
opls_142-79    C    0.35618989    0.80812999    0.31856111    0.04970000
opls_145-80    C    0.00000000    0.59186003    0.00000000    -0.07620000
opls_145-81    C    0.00000000    0.40813997    0.00000000    -0.07620000
opls_145-82    C    0.50000000    0.09183009    0.00000000    -0.20020000
opls_145-83    C    0.50000000    0.90816991    0.00000000    -0.20020000
opls_700-84    C    0.00000000    0.48159007    0.00000000    -0.00030000
opls_700-85    C    0.00000000    0.51840993    0.00000000    -0.00030000
opls_700-86    C    0.50000000    0.98162001    0.00000000    -0.00580000
opls_700-87    C    0.50000000    0.01837999    0.00000000    -0.00610000
opls_521-88    C    0.17545006    0.29296008    0.62833889    0.15800000
opls_521-89    C    0.82454994    0.70703992    0.62833889    0.15800000
opls_521-90    C    0.82454994    0.29296008    0.37166111    0.15800000
opls_521-91    C    0.17545006    0.70703992    0.37166111    0.15800000
opls_521-92    C    0.20534994    0.24035005    0.61588056    0.07800000
opls_521-93    C    0.79465006    0.75965993    0.61588056    0.06960000
opls_521-94    C    0.79465006    0.24035005    0.38411944    0.07800000
opls_521-95    C    0.20534994    0.75965993    0.38411944    0.06960000
opls_700-96    C    0.23594007    0.25946008    0.51891111    0.03430000
opls_700-97    C    0.76405993    0.74053992    0.51891111    0.03470000
opls_700-98    C    0.76405993    0.25946008    0.48108889    0.03430000
opls_700-99    C    0.23594007    0.74053992    0.48108889    0.03470000
opls_523-100    C    0.23314007    0.29494012    0.46088056    -0.12050000
opls_523-101    C    0.76685993    0.70505988    0.46088056    -0.12040000
opls_523-102    C    0.76685993    0.29494012    0.53911944    -0.12050000
opls_523-103    C    0.23314007    0.70505988    0.53911944    -0.12050000
opls_522-104    C    0.20314994    0.31151996    0.51343889    -0.16290000
opls_522-105    C    0.79685006    0.68848004    0.51343889    -0.16290000
opls_522-106    C    0.79685006    0.31151996    0.48656111    -0.16290000
opls_522-107    C    0.20314994    0.68848004    0.48656111    -0.16290000
opls_521-108    C    0.67320000    0.79175998    0.59806944    0.15400000
opls_521-109    C    0.32681011    0.20824002    0.59806944    0.16020000
opls_521-110    C    0.32681011    0.79175998    0.40193056    0.15630000
opls_521-111    C    0.67320000    0.20824002    0.40193056    0.15640000
opls_521-112    C    0.70372996    0.73989995    0.58956944    0.07170000
opls_521-113    C    0.29627004    0.26010005    0.58956944    0.06880000
opls_521-114    C    0.29627004    0.73989995    0.41043056    0.06880000
opls_521-115    C    0.70372996    0.26010005    0.41043056    0.07170000
opls_700-116    C    0.73334994    0.75734007    0.50950000    0.03460000
opls_700-117    C    0.26665006    0.24265993    0.50950000    0.03460000
opls_700-118    C    0.26665006    0.75734007    0.49050000    0.03460000
opls_700-119    C    0.73334994    0.24265993    0.49050000    0.03460000
opls_523-120    C    0.73136005    0.79482011    0.44283889    -0.13670000
opls_523-121    C    0.26863995    0.20517989    0.44283889    -0.13670000
opls_523-122    C    0.26863995    0.79482011    0.55716111    -0.13670000
opls_523-123    C    0.73136005    0.20517989    0.55716111    -0.13670000
opls_522-124    C    0.70276991    0.81115993    0.48371111    -0.18020000
opls_522-125    C    0.29723009    0.18884007    0.48371111    -0.18070000
opls_522-126    C    0.29723009    0.81115993    0.51628889    -0.18070000
opls_522-127    C    0.70276991    0.18884007    0.51628889    -0.18020000
opls_750-128    N    0.85769001    0.65677994    0.67316944    -0.29980000
opls_750-129    N    0.14230999    0.34322006    0.67316944    -0.29980000
opls_750-130    N    0.14230999    0.65677994    0.32683056    -0.29980000
opls_750-131    N    0.85769001    0.34322006    0.32683056    -0.29970000
opls_750-132    N    0.35896991    0.15748004    0.64510000    -0.30040000
opls_750-133    N    0.64103009    0.84251996    0.64510000    -0.30040000
opls_750-134    N    0.64103009    0.15748004    0.35490000    -0.30040000
opls_750-135    N    0.35896991    0.84251996    0.35490000    -0.30050000
opls_520-136    N    0.17783009    0.25655988    0.67001944    -0.35420000
opls_520-137    N    0.82216991    0.74344012    0.67001944    -0.35410000
opls_520-138    N    0.82216991    0.25655988    0.32998056    -0.35420000
opls_520-139    N    0.17783009    0.74344012    0.32998056    -0.35420000
opls_520-140    N    0.67514007    0.75732011    0.63763056    -0.30100000
opls_520-141    N    0.32487004    0.24269012    0.63763056    -0.29970000
opls_520-142    N    0.32487004    0.75732011    0.36236944    -0.30150000
opls_520-143    N    0.67514007    0.24269012    0.36236944    -0.30140000
opls_146-144    H    0.91672010    0.52919012    0.04005000    0.09480000
opls_146-145    H    0.41669001    0.02930988    0.04065000    0.09610000
opls_146-146    H    0.91272996    0.55869012    0.54900000    0.08910000
opls_146-147    H    0.41414994    0.05959007    0.55538056    0.24310000
opls_146-148    H    0.86456005    0.59225000    0.47688889    0.11940000
opls_146-149    H    0.36549001    0.09408009    0.47260000    0.11680000
opls_146-150    H    0.91183995    0.67634007    0.06458889    0.10370000
opls_146-151    H    0.41347004    0.17765993    0.06258056    0.11550000
opls_146-152    H    0.95721998    0.64080988    0.21198889    0.11880000
opls_146-153    H    0.45769001    0.14227994    0.21808889    0.12000000
opls_144-154    H    0.87410012    0.70709007    0.81031944    0.11540000
opls_144-155    H    0.37656991    0.20749002    0.77393889    0.11370000
opls_524-156    H    0.20574007    0.21309007    0.66443056    0.11530000
opls_526-157    H    0.25385993    0.31011003    0.36791111    0.11750000
opls_525-158    H    0.20172010    0.33889995    0.47041944    0.11500000
opls_524-159    H    0.70343009    0.71276996    0.64586111    0.11500000
opls_526-160    H    0.75250999    0.80912001    0.34603056    0.11920000
opls_525-161    H    0.70127990    0.83837001    0.43028056    0.11640000
opls_146-162    H    0.08327990    0.47080988    0.04005000    0.09480000
opls_146-163    H    0.58330999    0.97069012    0.04065000    0.09610000
opls_146-164    H    0.08727004    0.44130988    0.54900000    0.08910000
opls_146-165    H    0.58585006    0.94040993    0.55538056    0.24310000
opls_146-166    H    0.13543995    0.40775000    0.47688889    0.11940000
opls_146-167    H    0.63450999    0.90591991    0.47260000    0.11680000
opls_146-168    H    0.08816005    0.32365993    0.06458889    0.10370000
opls_146-169    H    0.58652996    0.82234007    0.06258056    0.11550000
opls_146-170    H    0.04278002    0.35919012    0.21198889    0.11890000
opls_146-171    H    0.54230999    0.85772006    0.21808889    0.11980000
opls_144-172    H    0.12590012    0.29290993    0.81031944    0.11530000
opls_144-173    H    0.62343009    0.79250998    0.77393889    0.11450000
opls_524-174    H    0.79425993    0.78691991    0.66443056    0.11530000
opls_526-175    H    0.74614007    0.68988997    0.36791111    0.11750000
opls_525-176    H    0.79827990    0.66110005    0.47041944    0.11500000
opls_524-177    H    0.29656991    0.28723004    0.64586111    0.11500000
opls_526-178    H    0.24749001    0.19087999    0.34603056    0.11920000
opls_525-179    H    0.29872010    0.16162999    0.43028056    0.11640000
opls_146-180    H    0.08327990    0.52919012    0.95995000    0.09480000
opls_146-181    H    0.58330999    0.02930988    0.95935000    0.09610000
opls_146-182    H    0.08727004    0.55869012    0.45100000    0.08910000
opls_146-183    H    0.58585006    0.05959007    0.44461944    0.24320000
opls_146-184    H    0.13543995    0.59225000    0.52311111    0.11940000
opls_146-185    H    0.63450999    0.09408009    0.52740000    0.11680000
opls_146-186    H    0.08816005    0.67634007    0.93541111    0.10370000
opls_146-187    H    0.58652996    0.17765993    0.93741944    0.11550000
opls_146-188    H    0.04278002    0.64080988    0.78801111    0.11880000
opls_146-189    H    0.54230999    0.14227994    0.78191111    0.12000000
opls_144-190    H    0.12590012    0.70709007    0.18968056    0.11530000
opls_144-191    H    0.62343009    0.20749002    0.22606111    0.11440000
opls_524-192    H    0.79425993    0.21309007    0.33556944    0.11540000
opls_526-193    H    0.74614007    0.31011003    0.63208889    0.11750000
opls_525-194    H    0.79827990    0.33889995    0.52958056    0.11500000
opls_524-195    H    0.29656991    0.71276996    0.35413889    0.11500000
opls_526-196    H    0.24749001    0.80912001    0.65396944    0.11920000
opls_525-197    H    0.29872010    0.83837001    0.56971944    0.11650000
opls_146-198    H    0.91672010    0.47080988    0.95995000    0.09480000
opls_146-199    H    0.41669001    0.97069012    0.95935000    0.09610000
opls_146-200    H    0.91272996    0.44130988    0.45100000    0.08910000
opls_146-201    H    0.41414994    0.94040993    0.44461944    0.24310000
opls_146-202    H    0.86456005    0.40775000    0.52311111    0.11940000
opls_146-203    H    0.36549001    0.90591991    0.52740000    0.11680000
opls_146-204    H    0.91183995    0.32365993    0.93541111    0.10370000
opls_146-205    H    0.41347004    0.82234007    0.93741944    0.11560000
opls_146-206    H    0.95721998    0.35919012    0.78801111    0.11880000
opls_146-207    H    0.45769001    0.85772006    0.78191111    0.11980000
opls_144-208    H    0.87410012    0.29290993    0.18968056    0.11530000
opls_144-209    H    0.37656991    0.79250998    0.22606111    0.11370000
opls_524-210    H    0.20574007    0.78691991    0.33556944    0.11530000
opls_526-211    H    0.25385993    0.68988997    0.63208889    0.11750000
opls_525-212    H    0.20172010    0.66110005    0.52958056    0.11500000
opls_524-213    H    0.70343009    0.28723004    0.35413889    0.11500000
opls_526-214    H    0.75250999    0.19087999    0.65396944    0.11920000
opls_525-215    H    0.70127990    0.16162999    0.56971944    0.11650000
opls_146-216    H    0.50000000    0.88084007    0.00000000    0.24470000
opls_146-217    H    0.50000000    0.11915993    0.00000000    0.24480000
opls_146-218    H    0.00000000    0.38079990    0.00000000    0.24470000
opls_146-219    H    0.00000000    0.61920010    0.00000000    0.24470000
