#======================================================================
# Crystal Data Generated By AuToFF
#----------------------------------------------------------------------

data_AuToFF_phase_1

_cell_length_a                         39.9528
_cell_length_b                         32.9594
_cell_length_c                         6.7463
_cell_angle_alpha                      90.00
_cell_angle_beta                       90.00
_cell_angle_gamma                      90.00
_symmetry_space_group_name_H-M_alt     'P 1'
_symmetry_space_group_IT_number        1

loop_
_space_group_symop_operation_xyz
   'x, y, z'

loop_
   _atom_site_label
   _atom_site_type_symbol
   _atom_site_fract_x
   _atom_site_fract_y
   _atom_site_fract_z
   _atom_site_charge
opls_145-0    C    0.24509997    0.79159997    0.50000000    -0.24620000
opls_145-1    C    0.74509997    0.29159997    0.50000000    -0.24620000
opls_145-2    C    0.75490003    0.20840003    0.50000000    -0.24620000
opls_145-3    C    0.25490003    0.70840003    0.50000000    -0.24620000
opls_145-4    C    0.75490003    0.79159997    0.50000000    -0.24620000
opls_145-5    C    0.25490003    0.29159997    0.50000000    -0.24620000
opls_145-6    C    0.24509997    0.20840003    0.50000000    -0.24620000
opls_145-7    C    0.74509997    0.70840003    0.50000000    -0.24620000
opls_166-8    C    0.28279995    0.73382009    0.50000000    0.33580000
opls_166-9    C    0.78279995    0.23382009    0.50000000    0.33580000
opls_166-10    C    0.71720005    0.26617991    0.50000000    0.33580000
opls_166-11    C    0.21720005    0.76617991    0.50000000    0.33580000
opls_166-12    C    0.71720005    0.73382009    0.50000000    0.33580000
opls_166-13    C    0.21720005    0.23382009    0.50000000    0.33580000
opls_166-14    C    0.28279995    0.26617991    0.50000000    0.33580000
opls_166-15    C    0.78279995    0.76617991    0.50000000    0.33580000
opls_142-16    C    0.19508996    0.69179991    0.50000000    0.06980000
opls_142-17    C    0.69508996    0.19179991    0.50000000    0.06980000
opls_142-18    C    0.80491004    0.30820009    0.50000000    0.06980000
opls_142-19    C    0.30491004    0.80820009    0.50000000    0.06980000
opls_142-20    C    0.80491004    0.69179991    0.50000000    0.06980000
opls_142-21    C    0.30491004    0.19179991    0.50000000    0.06980000
opls_142-22    C    0.19508996    0.30820009    0.50000000    0.06980000
opls_142-23    C    0.69508996    0.80820009    0.50000000    0.06980000
opls_700-24    C    0.27808990    0.77672986    0.50000000    -0.03650000
opls_700-25    C    0.77808990    0.27672986    0.50000000    -0.03650000
opls_700-26    C    0.72191010    0.22327014    0.50000000    -0.03650000
opls_700-27    C    0.22191010    0.72327014    0.50000000    -0.03650000
opls_700-28    C    0.72191010    0.77672986    0.50000000    -0.03650000
opls_700-29    C    0.22191010    0.27672986    0.50000000    -0.03650000
opls_700-30    C    0.27808990    0.22327014    0.50000000    -0.03650000
opls_700-31    C    0.77808990    0.72327014    0.50000000    -0.03650000
opls_543-32    C    0.07580996    0.46594993    0.50000000    0.17570000
opls_543-33    C    0.57580996    0.96594993    0.50000000    0.17570000
opls_543-34    C    0.92419004    0.53405007    0.50000000    0.17570000
opls_543-35    C    0.42419004    0.03405007    0.50000000    0.17570000
opls_543-36    C    0.92419004    0.46594993    0.50000000    0.17570000
opls_543-37    C    0.42419004    0.96594993    0.50000000    0.17570000
opls_543-38    C    0.07580996    0.53405007    0.50000000    0.17570000
opls_543-39    C    0.57580996    0.03405007    0.50000000    0.17570000
opls_716-40    C    0.10899011    0.47868013    0.50000000    -0.17900000
opls_716-41    C    0.60899011    0.97868013    0.50000000    -0.17900000
opls_716-42    C    0.89100989    0.52131987    0.50000000    -0.17900000
opls_716-43    C    0.39100989    0.02131987    0.50000000    -0.17900000
opls_716-44    C    0.89100989    0.47868013    0.50000000    -0.17900000
opls_716-45    C    0.39100989    0.97868013    0.50000000    -0.17900000
opls_716-46    C    0.10899011    0.52131987    0.50000000    -0.17900000
opls_716-47    C    0.60899011    0.02131987    0.50000000    -0.17900000
opls_543-48    C    0.52946001    0.90855993    0.50000000    0.19830000
opls_543-49    C    0.02946001    0.40855993    0.50000000    0.19830000
opls_543-50    C    0.47053999    0.09144007    0.50000000    0.19830000
opls_543-51    C    0.97053999    0.59144007    0.50000000    0.19830000
opls_543-52    C    0.47053999    0.90855993    0.50000000    0.19830000
opls_543-53    C    0.97053999    0.40855993    0.50000000    0.19830000
opls_543-54    C    0.52946001    0.09144007    0.50000000    0.19830000
opls_543-55    C    0.02946001    0.59144007    0.50000000    0.19830000
opls_716-56    C    0.51689994    0.86644994    0.50000000    -0.20680000
opls_716-57    C    0.01689994    0.36644994    0.50000000    -0.20680000
opls_716-58    C    0.48310006    0.13355006    0.50000000    -0.20680000
opls_716-59    C    0.98310006    0.63355006    0.50000000    -0.20680000
opls_716-60    C    0.48310006    0.86644994    0.50000000    -0.20680000
opls_716-61    C    0.98310006    0.36644994    0.50000000    -0.20680000
opls_716-62    C    0.51689994    0.13355006    0.50000000    -0.20680000
opls_716-63    C    0.01689994    0.63355006    0.50000000    -0.20680000
opls_700-64    C    0.06247998    0.42197006    0.50000000    -0.14020000
opls_700-65    C    0.56247998    0.92197006    0.50000000    -0.14020000
opls_700-66    C    0.93752002    0.57802994    0.50000000    -0.14020000
opls_700-67    C    0.43752002    0.07802994    0.50000000    -0.14020000
opls_700-68    C    0.93752002    0.42197006    0.50000000    -0.14020000
opls_700-69    C    0.43752002    0.92197006    0.50000000    -0.14020000
opls_700-70    C    0.06247998    0.57802994    0.50000000    -0.14020000
opls_700-71    C    0.56247998    0.07802994    0.50000000    -0.14020000
opls_700-72    C    0.08854999    0.39034995    0.50000000    0.06550000
opls_700-73    C    0.58854999    0.89034995    0.50000000    0.06550000
opls_700-74    C    0.91145001    0.60965005    0.50000000    0.06550000
opls_700-75    C    0.41145001    0.10965005    0.50000000    0.06550000
opls_700-76    C    0.91145001    0.39034995    0.50000000    0.06550000
opls_700-77    C    0.41145001    0.89034995    0.50000000    0.06550000
opls_700-78    C    0.08854999    0.60965005    0.50000000    0.06550000
opls_700-79    C    0.58854999    0.10965005    0.50000000    0.06550000
opls_145-80    C    0.60101995    0.87528990    0.67976965    -0.12870000
opls_145-81    C    0.10101995    0.37528990    0.67976965    -0.12870000
opls_145-82    C    0.39898005    0.12471010    0.67976965    -0.12870000
opls_145-83    C    0.89898005    0.62471010    0.67976965    -0.12870000
opls_145-84    C    0.39898005    0.87528990    0.32024072    -0.12870000
opls_145-85    C    0.89898005    0.37528990    0.32024072    -0.12870000
opls_145-86    C    0.60101995    0.12471010    0.32024072    -0.12870000
opls_145-87    C    0.10101995    0.62471010    0.32024072    -0.12870000
opls_145-88    C    0.39898005    0.12471010    0.32024072    -0.12870000
opls_145-89    C    0.89898005    0.62471010    0.32024072    -0.12870000
opls_145-90    C    0.60101995    0.87528990    0.32024072    -0.12870000
opls_145-91    C    0.10101995    0.37528990    0.32024072    -0.12870000
opls_145-92    C    0.60101995    0.12471010    0.67976965    -0.12870000
opls_145-93    C    0.10101995    0.62471010    0.67976965    -0.12870000
opls_145-94    C    0.39898005    0.87528990    0.67976965    -0.12870000
opls_145-95    C    0.89898005    0.37528990    0.67976965    -0.12870000
opls_145-96    C    0.12580996    0.34528996    0.67939018    -0.17110000
opls_145-97    C    0.62580996    0.84528996    0.67939018    -0.17110000
opls_145-98    C    0.87419004    0.65471004    0.67939018    -0.17110000
opls_145-99    C    0.37419004    0.15471004    0.67939018    -0.17110000
opls_145-100    C    0.87419004    0.34528996    0.32060982    -0.17110000
opls_145-101    C    0.37419004    0.84528996    0.32060982    -0.17110000
opls_145-102    C    0.12580996    0.65471004    0.32060982    -0.17110000
opls_145-103    C    0.62580996    0.15471004    0.32060982    -0.17110000
opls_145-104    C    0.87419004    0.65471004    0.32060982    -0.17110000
opls_145-105    C    0.37419004    0.15471004    0.32060982    -0.17120000
opls_145-106    C    0.12580996    0.34528996    0.32060982    -0.17110000
opls_145-107    C    0.62580996    0.84528996    0.32060982    -0.17110000
opls_145-108    C    0.12580996    0.65471004    0.67939018    -0.17120000
opls_145-109    C    0.62580996    0.15471004    0.67939018    -0.17110000
opls_145-110    C    0.87419004    0.34528996    0.67939018    -0.17110000
opls_145-111    C    0.37419004    0.84528996    0.67939018    -0.17110000
opls_145-112    C    0.13831997    0.33041985    0.50000000    0.18560000
opls_145-113    C    0.63831997    0.83041985    0.50000000    0.18560000
opls_145-114    C    0.86168003    0.66958015    0.50000000    0.18560000
opls_145-115    C    0.36168003    0.16958015    0.50000000    0.18560000
opls_145-116    C    0.86168003    0.33041985    0.50000000    0.18560000
opls_145-117    C    0.36168003    0.83041985    0.50000000    0.18560000
opls_145-118    C    0.13831997    0.66958015    0.50000000    0.18560000
opls_145-119    C    0.63831997    0.16958015    0.50000000    0.18560000
opls_750-120    N    0.33653011    0.79964987    0.50000000    -0.31310000
opls_750-121    N    0.83653011    0.29964987    0.50000000    -0.31310000
opls_750-122    N    0.66346989    0.20035013    0.50000000    -0.31310000
opls_750-123    N    0.16346989    0.70035013    0.50000000    -0.31310000
opls_750-124    N    0.66346989    0.79964987    0.50000000    -0.31310000
opls_750-125    N    0.16346989    0.29964987    0.50000000    -0.31310000
opls_750-126    N    0.33653011    0.20035013    0.50000000    -0.31310000
opls_750-127    N    0.83653011    0.70035013    0.50000000    -0.31330000
opls_542-128    N    0.05752012    0.50000000    0.50000000    -0.29830000
opls_542-129    N    0.55752012    0.00000000    0.50000000    -0.29830000
opls_542-130    N    0.94247988    0.50000000    0.50000000    -0.29830000
opls_542-131    N    0.44247988    0.00000000    0.50000000    -0.29830000
opls_542-132    N    0.50000000    0.93239986    0.50000000    -0.31780000
opls_542-133    N    0.00000000    0.43239986    0.50000000    -0.31780000
opls_542-134    N    0.50000000    0.06761015    0.50000000    -0.31790000
opls_542-135    N    0.00000000    0.56760014    0.50000000    -0.31780000
opls_545-136    H    0.03352005    0.50000000    0.50000000    0.28040000
opls_545-137    H    0.53352005    0.00000000    0.50000000    0.28040000
opls_545-138    H    0.96647995    0.50000000    0.50000000    0.28040000
opls_545-139    H    0.46647995    0.00000000    0.50000000    0.28040000
opls_547-140    H    0.13085991    0.45934999    0.50000000    0.11260000
opls_547-141    H    0.63085991    0.95934999    0.50000000    0.11250000
opls_547-142    H    0.86914009    0.54065001    0.50000000    0.11260000
opls_547-143    H    0.36914009    0.04065001    0.50000000    0.11260000
opls_547-144    H    0.86914009    0.45934999    0.50000000    0.11260000
opls_547-145    H    0.36914009    0.95934999    0.50000000    0.11260000
opls_547-146    H    0.13085991    0.54065001    0.50000000    0.11260000
opls_547-147    H    0.63085991    0.04065001    0.50000000    0.11260000
opls_547-148    H    0.53223003    0.83939999    0.50000000    0.11470000
opls_547-149    H    0.03223003    0.33939999    0.50000000    0.11470000
opls_547-150    H    0.46776997    0.16060001    0.50000000    0.11470000
opls_547-151    H    0.96776997    0.66060001    0.50000000    0.11470000
opls_547-152    H    0.46776997    0.83939999    0.50000000    0.11470000
opls_547-153    H    0.96776997    0.33939999    0.50000000    0.11470000
opls_547-154    H    0.53223003    0.16060001    0.50000000    0.11470000
opls_547-155    H    0.03223003    0.66060001    0.50000000    0.11470000
opls_146-156    H    0.09144991    0.38675006    0.81905044    0.11200000
opls_146-157    H    0.59144991    0.88675006    0.81905044    0.11200000
opls_146-158    H    0.90855009    0.61324994    0.81905044    0.11200000
opls_146-159    H    0.40855009    0.11324994    0.81905044    0.11200000
opls_146-160    H    0.90855009    0.38675006    0.18094956    0.11200000
opls_146-161    H    0.40855009    0.88675006    0.18094956    0.11200000
opls_146-162    H    0.09144991    0.61324994    0.18094956    0.11200000
opls_146-163    H    0.59144991    0.11324994    0.18094956    0.11200000
opls_146-164    H    0.90855009    0.61324994    0.18094956    0.11200000
opls_146-165    H    0.40855009    0.11324994    0.18094956    0.11200000
opls_146-166    H    0.09144991    0.38675006    0.18094956    0.11190000
opls_146-167    H    0.59144991    0.88675006    0.18094956    0.11200000
opls_146-168    H    0.09144991    0.61324994    0.81905044    0.11200000
opls_146-169    H    0.59144991    0.11324994    0.81905044    0.11200000
opls_146-170    H    0.90855009    0.38675006    0.81905044    0.11200000
opls_146-171    H    0.40855009    0.88675006    0.81905044    0.11200000
opls_146-172    H    0.13543006    0.33338987    0.81739027    0.11500000
opls_146-173    H    0.63543006    0.83338987    0.81739027    0.11500000
opls_146-174    H    0.86456994    0.66661013    0.81739027    0.11500000
opls_146-175    H    0.36456994    0.16661013    0.81739027    0.11500000
opls_146-176    H    0.86456994    0.33338987    0.18260973    0.11500000
opls_146-177    H    0.36456994    0.83338987    0.18260973    0.11500000
opls_146-178    H    0.13543006    0.66661013    0.18260973    0.11500000
opls_146-179    H    0.63543006    0.16661013    0.18260973    0.11500000
opls_146-180    H    0.86456994    0.66661013    0.18260973    0.11500000
opls_146-181    H    0.36456994    0.16661013    0.18260973    0.11500000
opls_146-182    H    0.13543006    0.33338987    0.18260973    0.11500000
opls_146-183    H    0.63543006    0.83338987    0.18260973    0.11500000
opls_146-184    H    0.13543006    0.66661013    0.81739027    0.11500000
opls_146-185    H    0.63543006    0.16661013    0.81739027    0.11500000
opls_146-186    H    0.86456994    0.33338987    0.81739027    0.11500000
opls_146-187    H    0.36456994    0.83338987    0.81739027    0.11500000
opls_146-188    H    0.24036989    0.82395007    0.50000000    0.11060000
opls_144-189    H    0.20259006    0.66008999    0.50000000    0.10310000
opls_168-190    H    0.33418008    0.73148995    0.50000000    0.29050000
opls_146-191    H    0.74036989    0.32395007    0.50000000    0.11060000
opls_144-192    H    0.70259006    0.16008999    0.50000000    0.10310000
opls_168-193    H    0.83418008    0.23148995    0.50000000    0.29050000
opls_146-194    H    0.75963011    0.17604993    0.50000000    0.11060000
opls_144-195    H    0.79740994    0.33991001    0.50000000    0.10310000
opls_168-196    H    0.66581992    0.26851005    0.50000000    0.29050000
opls_146-197    H    0.25963011    0.67604993    0.50000000    0.11060000
opls_144-198    H    0.29740994    0.83991001    0.50000000    0.10310000
opls_168-199    H    0.16581992    0.76851005    0.50000000    0.29050000
opls_146-200    H    0.75963011    0.82395007    0.50000000    0.11060000
opls_144-201    H    0.79740994    0.66008999    0.50000000    0.10310000
opls_168-202    H    0.66581992    0.73148995    0.50000000    0.29050000
opls_146-203    H    0.25963011    0.32395007    0.50000000    0.11060000
opls_144-204    H    0.29740994    0.16008999    0.50000000    0.10310000
opls_168-205    H    0.16581992    0.23148995    0.50000000    0.29050000
opls_146-206    H    0.24036989    0.17604993    0.50000000    0.11060000
opls_144-207    H    0.20259006    0.33991001    0.50000000    0.10310000
opls_168-208    H    0.33418008    0.26851005    0.50000000    0.29050000
opls_146-209    H    0.74036989    0.67604993    0.50000000    0.11060000
opls_144-210    H    0.70259006    0.83991001    0.50000000    0.10310000
opls_168-211    H    0.83418008    0.76851005    0.50000000    0.29050000
opls_545-212    H    0.50000000    0.96162005    0.50000000    0.28030000
opls_545-213    H    0.00000000    0.46162005    0.50000000    0.28020000
opls_545-214    H    0.50000000    0.03837995    0.50000000    0.28030000
opls_545-215    H    0.00000000    0.53837995    0.50000000    0.28030000
opls_167-216    O    0.31366012    0.71384006    0.50000000    -0.46700000
opls_167-217    O    0.81366012    0.21384006    0.50000000    -0.46700000
opls_167-218    O    0.68633988    0.28615994    0.50000000    -0.46700000
opls_167-219    O    0.18633988    0.78615994    0.50000000    -0.46700000
opls_167-220    O    0.68633988    0.71384006    0.50000000    -0.46700000
opls_167-221    O    0.18633988    0.21384006    0.50000000    -0.46700000
opls_167-222    O    0.31366012    0.28615994    0.50000000    -0.46700000
opls_167-223    O    0.81366012    0.78615994    0.50000000    -0.46700000
