#======================================================================
# Crystal Data Generated By AuToFF
#----------------------------------------------------------------------

data_AuToFF_phase_1

_cell_length_a                         75.9599
_cell_length_b                         75.9599
_cell_length_c                         3.5131
_cell_angle_alpha                      90.00
_cell_angle_beta                       90.00
_cell_angle_gamma                      120.00
_symmetry_space_group_name_H-M_alt     'P 1'
_symmetry_space_group_IT_number        1

loop_
_space_group_symop_operation_xyz
   'x, y, z'

loop_
   _atom_site_label
   _atom_site_type_symbol
   _atom_site_fract_x
   _atom_site_fract_y
   _atom_site_fract_z
   _atom_site_charge
opls_145-0    C    0.99143997    0.51257996    0.49089978    -0.11870000
opls_700-1    C    0.97883998    0.49142000    0.49095955    0.12560000
opls_145-2    C    0.98742997    0.47885007    0.49089978    -0.11690000
opls_261-3    C    0.95711005    0.48261000    0.49144915    -0.11620000
opls_261-4    C    0.93890002    0.47523000    0.49208107    -0.11450000
opls_700-5    C    0.91717996    0.46642000    0.49306026    0.14430000
opls_145-6    C    0.90858001    0.47897001    0.49465999    -0.11820000
opls_145-7    C    0.88745998    0.47041007    0.49610031    -0.12700000
opls_700-8    C    0.87470999    0.44922001    0.49590106    0.06920000
opls_145-9    C    0.88346005    0.43669007    0.49428140    -0.13090000
opls_145-10    C    0.90458992    0.44527995    0.49284108    -0.11860000
opls_142-11    C    0.85246002    0.44055002    0.49807862    0.07130000
opls_531-12    C    0.68738001    0.34388005    0.50814950    0.35400000
opls_700-13    C    0.64546995    0.29013000    0.50775099    0.00060000
opls_523-14    C    0.62468003    0.27908995    0.59746947    -0.12330000
opls_145-15    C    0.61428006    0.25786006    0.59929976    -0.12720000
opls_700-16    C    0.62436002    0.24714000    0.50606871    0.06790000
opls_145-17    C    0.64515002    0.25824998    0.41393072    -0.12720000
opls_523-18    C    0.65560996    0.27948002    0.41740913    -0.12280000
opls_700-19    C    0.61324001    0.22450002    0.50454869    0.06850000
opls_145-20    C    0.59268995    0.21340996    0.39504996    -0.12690000
opls_145-21    C    0.58228993    0.19218995    0.39487063    -0.17150000
opls_145-22    C    0.59216992    0.18152993    0.49725883    0.19070000
opls_145-23    C    0.61267995    0.19250994    0.61034983    -0.16820000
opls_145-24    C    0.62305999    0.21375002    0.61403034    -0.12990000
opls_145-25    C    0.48742003    0.47885995    0.49089978    -0.11870000
opls_700-26    C    0.50858004    0.48742004    0.49095955    0.12560000
opls_145-27    C    0.52115002    0.50858000    0.49089978    -0.11690000
opls_261-28    C    0.51739006    0.47450002    0.49144915    -0.11620000
opls_261-29    C    0.52476998    0.46367006    0.49208107    -0.11450000
opls_700-30    C    0.53358002    0.45076007    0.49306026    0.14420000
opls_145-31    C    0.52102999    0.42960999    0.49465999    -0.11820000
opls_145-32    C    0.52959003    0.41704995    0.49610031    -0.12690000
opls_700-33    C    0.55077998    0.42549009    0.49590106    0.06920000
opls_145-34    C    0.56331001    0.44677000    0.49428140    -0.13090000
opls_145-35    C    0.55471992    0.45930998    0.49284108    -0.11860000
opls_142-36    C    0.55944995    0.41191003    0.49807862    0.07130000
opls_531-37    C    0.65612005    0.34350001    0.50814950    0.35400000
opls_700-38    C    0.70987000    0.35533997    0.50775099    0.00060000
opls_523-39    C    0.72091002    0.34559006    0.59746947    -0.12320000
opls_145-40    C    0.74214006    0.35642003    0.59929976    -0.12720000
opls_700-41    C    0.75285996    0.37722002    0.50606871    0.06790000
opls_145-42    C    0.74174996    0.38690000    0.41393072    -0.12720000
opls_523-43    C    0.72052006    0.37613008    0.41740913    -0.12280000
opls_700-44    C    0.77550003    0.38873998    0.50454869    0.06850000
opls_145-45    C    0.78658995    0.37927997    0.39504996    -0.12700000
opls_145-46    C    0.80781005    0.39010006    0.39487063    -0.17150000
opls_145-47    C    0.81846994    0.41063995    0.49725883    0.19070000
opls_145-48    C    0.80748997    0.42017004    0.61034983    -0.16830000
opls_145-49    C    0.78625001    0.40930998    0.61403034    -0.12990000
opls_145-50    C    0.52113992    0.00855994    0.49089978    -0.11870000
opls_700-51    C    0.51257998    0.02115996    0.49095955    0.12560000
opls_145-52    C    0.49142001    0.01256993    0.49089978    -0.11690000
opls_261-53    C    0.52550002    0.04288998    0.49144915    -0.11620000
opls_261-54    C    0.53633000    0.06109995    0.49208107    -0.11450000
opls_700-55    C    0.54924002    0.08281993    0.49306026    0.14420000
opls_145-56    C    0.57038999    0.09142000    0.49465999    -0.11820000
opls_145-57    C    0.58294999    0.11253998    0.49610031    -0.12700000
opls_700-58    C    0.57450997    0.12529004    0.49590106    0.06920000
opls_145-59    C    0.55322994    0.11653994    0.49428140    -0.13090000
opls_145-60    C    0.54069002    0.09541007    0.49284108    -0.11860000
opls_142-61    C    0.58809003    0.14753995    0.49807862    0.07130000
opls_531-62    C    0.65649994    0.31261994    0.50814950    0.35400000
opls_700-63    C    0.64466005    0.35453003    0.50775099    0.00060000
opls_523-64    C    0.65440995    0.37531999    0.59746947    -0.12330000
opls_145-65    C    0.64358008    0.38572006    0.59929976    -0.12720000
opls_700-66    C    0.62278002    0.37563998    0.50606871    0.06790000
opls_145-67    C    0.61310002    0.35485002    0.41393072    -0.12720000
opls_523-68    C    0.62387006    0.34439006    0.41740913    -0.12280000
opls_700-69    C    0.61125996    0.38675999    0.50454869    0.06850000
opls_145-70    C    0.62072009    0.40731007    0.39504996    -0.12700000
opls_145-71    C    0.60990002    0.41770999    0.39487063    -0.17150000
opls_145-72    C    0.58935993    0.40782996    0.49725883    0.19070000
opls_145-73    C    0.57982995    0.38732001    0.61034983    -0.16830000
opls_145-74    C    0.59068999    0.37694001    0.61403034    -0.12990000
opls_145-75    C    0.00856003    0.48742004    0.49089978    -0.11870000
opls_700-76    C    0.02116002    0.50858000    0.49095955    0.12560000
opls_145-77    C    0.01256997    0.52115008    0.49089978    -0.11690000
opls_261-78    C    0.04288995    0.51739000    0.49144915    -0.11620000
opls_261-79    C    0.06109998    0.52477000    0.49208107    -0.11450000
opls_700-80    C    0.08282004    0.53358000    0.49306026    0.14420000
opls_145-81    C    0.09141999    0.52102999    0.49465999    -0.11820000
opls_145-82    C    0.11254010    0.52959008    0.49610031    -0.12700000
opls_700-83    C    0.12529001    0.55077999    0.49590106    0.06920000
opls_145-84    C    0.11654003    0.56331009    0.49428140    -0.13090000
opls_145-85    C    0.09541008    0.55472005    0.49284108    -0.11860000
opls_142-86    C    0.14753998    0.55944998    0.49807862    0.07130000
opls_531-87    C    0.31262006    0.65612010    0.50814950    0.35400000
opls_700-88    C    0.35453005    0.70987000    0.50775099    0.00060000
opls_523-89    C    0.37531997    0.72091005    0.59746947    -0.12330000
opls_145-90    C    0.38572001    0.74214009    0.59929976    -0.12720000
opls_700-91    C    0.37563998    0.75286000    0.50606871    0.06790000
opls_145-92    C    0.35484998    0.74175002    0.41393072    -0.12720000
opls_523-93    C    0.34439004    0.72051998    0.41740913    -0.12280000
opls_700-94    C    0.38675999    0.77549998    0.50454869    0.06850000
opls_145-95    C    0.40731005    0.78659004    0.39504996    -0.12700000
opls_145-96    C    0.41771007    0.80781005    0.39487063    -0.17150000
opls_145-97    C    0.40783008    0.81847007    0.49725883    0.19070000
opls_145-98    C    0.38732005    0.80749006    0.61034983    -0.16830000
opls_145-99    C    0.37694001    0.78624998    0.61403034    -0.12990000
opls_145-100    C    0.51257997    0.52114005    0.49089978    -0.11870000
opls_700-101    C    0.49141996    0.51257996    0.49095955    0.12560000
opls_145-102    C    0.47884998    0.49142000    0.49089978    -0.11690000
opls_261-103    C    0.48260994    0.52549998    0.49144915    -0.11620000
opls_261-104    C    0.47523009    0.53633010    0.49208107    -0.11440000
opls_700-105    C    0.46642006    0.54924008    0.49306026    0.14420000
opls_145-106    C    0.47897001    0.57039001    0.49465999    -0.11820000
opls_145-107    C    0.47040997    0.58295005    0.49610031    -0.12700000
opls_700-108    C    0.44922009    0.57451006    0.49590106    0.06920000
opls_145-109    C    0.43668999    0.55323000    0.49428140    -0.13090000
opls_145-110    C    0.44528008    0.54069002    0.49284108    -0.11860000
opls_142-111    C    0.44055005    0.58808997    0.49807862    0.07130000
opls_531-112    C    0.34387995    0.65649999    0.50814950    0.35400000
opls_700-113    C    0.29013000    0.64466003    0.50775099    0.00060000
opls_523-114    C    0.27909005    0.65441009    0.59746947    -0.12330000
opls_145-115    C    0.25785994    0.64357997    0.59929976    -0.12710000
opls_700-116    C    0.24714004    0.62277998    0.50606871    0.06790000
opls_145-117    C    0.25825004    0.61310000    0.41393072    -0.12720000
opls_523-118    C    0.27948002    0.62387008    0.41740913    -0.12280000
opls_700-119    C    0.22449997    0.61126002    0.50454869    0.06850000
opls_145-120    C    0.21341005    0.62072003    0.39504996    -0.12690000
opls_145-121    C    0.19219003    0.60990010    0.39487063    -0.17150000
opls_145-122    C    0.18153006    0.58936005    0.49725883    0.19070000
opls_145-123    C    0.19251003    0.57982996    0.61034983    -0.16830000
opls_145-124    C    0.21374999    0.59069002    0.61403034    -0.12990000
opls_145-125    C    0.47886008    0.99144006    0.49089978    -0.11860000
opls_700-126    C    0.48742002    0.97884004    0.49095955    0.12560000
opls_145-127    C    0.50857999    0.98743007    0.49089978    -0.11690000
opls_261-128    C    0.47449998    0.95711002    0.49144915    -0.11620000
opls_261-129    C    0.46367000    0.93890005    0.49208107    -0.11450000
opls_700-130    C    0.45075998    0.91718007    0.49306026    0.14420000
opls_145-131    C    0.42961001    0.90858000    0.49465999    -0.11820000
opls_145-132    C    0.41705001    0.88746002    0.49610031    -0.12700000
opls_700-133    C    0.42549011    0.87471011    0.49590106    0.06920000
opls_145-134    C    0.44677006    0.88346006    0.49428140    -0.13090000
opls_145-135    C    0.45931006    0.90459008    0.49284108    -0.11860000
opls_142-136    C    0.41190997    0.85246005    0.49807862    0.07130000
opls_531-137    C    0.34350006    0.68738006    0.50814950    0.35400000
opls_700-138    C    0.35533995    0.64546997    0.50775099    0.00060000
opls_523-139    C    0.34559005    0.62468001    0.59746947    -0.12330000
opls_145-140    C    0.35641999    0.61428009    0.59929976    -0.12720000
opls_700-141    C    0.37721998    0.62436002    0.50606871    0.06790000
opls_145-142    C    0.38689998    0.64514998    0.41393072    -0.12720000
opls_523-143    C    0.37613002    0.65561009    0.41740913    -0.12280000
opls_700-144    C    0.38874004    0.61324001    0.50454869    0.06850000
opls_145-145    C    0.37927998    0.59269008    0.39504996    -0.12690000
opls_145-146    C    0.39009998    0.58229001    0.39487063    -0.17150000
opls_145-147    C    0.41064007    0.59217004    0.49725883    0.19070000
opls_145-148    C    0.42017005    0.61267999    0.61034983    -0.16820000
opls_145-149    C    0.40931001    0.62305999    0.61403034    -0.12980000
opls_750-150    N    0.41931001    0.84030011    0.49195013    -0.34790000
opls_520-151    N    0.67714002    0.32323998    0.50814096    -0.44850000
opls_750-152    N    0.15970006    0.57900999    0.49195013    -0.34790000
opls_520-153    N    0.67676007    0.35390008    0.50814096    -0.44860000
opls_750-154    N    0.42099001    0.58069005    0.49195013    -0.34780000
opls_520-155    N    0.64609991    0.32285994    0.50814096    -0.44860000
opls_750-156    N    0.58069007    0.15970004    0.49195013    -0.34790000
opls_520-157    N    0.32285998    0.67676002    0.50814096    -0.44850000
opls_750-158    N    0.84029994    0.42099001    0.49195013    -0.34780000
opls_520-159    N    0.32324000    0.64610007    0.50814096    -0.44860000
opls_750-160    N    0.57900999    0.41930995    0.49195013    -0.34790000
opls_520-161    N    0.35390009    0.67714006    0.50814096    -0.44860000
opls_146-162    H    0.98494005    0.52244008    0.49097948    0.11850000
opls_146-163    H    0.97782000    0.46247005    0.49097948    0.11590000
opls_146-164    H    0.91818998    0.49535003    0.49493894    0.11590000
opls_146-165    H    0.88106001    0.48036003    0.49750078    0.11530000
opls_146-166    H    0.87403003    0.42030002    0.49432125    0.11690000
opls_146-167    H    0.91110009    0.43544005    0.49169964    0.11710000
opls_144-168    H    0.84653994    0.45086998    0.49647889    0.12110000
opls_526-169    H    0.61647999    0.28684999    0.67269079    0.11550000
opls_146-170    H    0.59841998    0.24988006    0.68068088    0.11680000
opls_146-171    H    0.65333009    0.25057005    0.33198030    0.11740000
opls_526-172    H    0.67157993    0.28753998    0.34275142    0.11550000
opls_146-173    H    0.58470008    0.22110007    0.30206940    0.12000000
opls_146-174    H    0.56650000    0.18396004    0.30834875    0.11770000
opls_146-175    H    0.62066999    0.18489994    0.70596055    0.11960000
opls_146-176    H    0.63866005    0.22171998    0.71173892    0.11990000
opls_146-177    H    0.47755996    0.46250000    0.49097948    0.11850000
opls_146-178    H    0.53753001    0.51534997    0.49097948    0.11590000
opls_146-179    H    0.50464999    0.42284003    0.49493894    0.11590000
opls_146-180    H    0.51964006    0.40070003    0.49750078    0.11530000
opls_146-181    H    0.57969997    0.45372998    0.49432125    0.11690000
opls_146-182    H    0.56456005    0.47566005    0.49169964    0.11710000
opls_144-183    H    0.54912997    0.39567002    0.49647889    0.12100000
opls_526-184    H    0.71315001    0.32963006    0.67269079    0.11550000
opls_146-185    H    0.75012005    0.34854005    0.68068088    0.11680000
opls_146-186    H    0.74942995    0.40275998    0.33198030    0.11740000
opls_526-187    H    0.71245999    0.38404000    0.34275142    0.11560000
opls_146-188    H    0.77890004    0.36359998    0.30206940    0.12010000
opls_146-189    H    0.81604008    0.38254007    0.30834875    0.11770000
opls_146-190    H    0.81510002    0.43577008    0.70596055    0.11960000
opls_146-191    H    0.77828001    0.41694004    0.71173892    0.12000000
opls_146-192    H    0.53750006    0.01506008    0.49097948    0.11850000
opls_146-193    H    0.48464999    0.02217998    0.49097948    0.11600000
opls_146-194    H    0.57716002    0.08180995    0.49493894    0.11590000
opls_146-195    H    0.59929993    0.11893994    0.49750078    0.11530000
opls_146-196    H    0.54627000    0.12597000    0.49432125    0.11690000
opls_146-197    H    0.52434007    0.08890005    0.49169964    0.11710000
opls_144-198    H    0.60432996    0.15346000    0.49647889    0.12100000
opls_526-199    H    0.67037001    0.38351996    0.67269079    0.11550000
opls_146-200    H    0.65146004    0.40158004    0.68068088    0.11680000
opls_146-201    H    0.59723997    0.34666997    0.33198030    0.11740000
opls_526-202    H    0.61595995    0.32842002    0.34275142    0.11550000
opls_146-203    H    0.63640002    0.41529996    0.30206940    0.12010000
opls_146-204    H    0.61746000    0.43350004    0.30834875    0.11770000
opls_146-205    H    0.56422999    0.37932998    0.70596055    0.11960000
opls_146-206    H    0.58305993    0.36133998    0.71173892    0.11990000
opls_146-207    H    0.01506002    0.47756008    0.49097948    0.11400000
opls_146-208    H    0.02218007    0.53753010    0.49097948    0.11590000
opls_146-209    H    0.08181002    0.50464997    0.49493894    0.11590000
opls_146-210    H    0.11893999    0.51963997    0.49750078    0.11530000
opls_146-211    H    0.12596997    0.57969998    0.49432125    0.11690000
opls_146-212    H    0.08889999    0.56456010    0.49169964    0.11710000
opls_144-213    H    0.15346006    0.54913002    0.49647889    0.12100000
opls_526-214    H    0.38352001    0.71315001    0.67269079    0.11560000
opls_146-215    H    0.40158009    0.75012009    0.68068088    0.11680000
opls_146-216    H    0.34666999    0.74943010    0.33198030    0.11740000
opls_526-217    H    0.32842007    0.71246002    0.34275142    0.11550000
opls_146-218    H    0.41530000    0.77890008    0.30206940    0.12000000
opls_146-219    H    0.43350008    0.81604011    0.30834875    0.11770000
opls_146-220    H    0.37933001    0.81510006    0.70596055    0.11970000
opls_146-221    H    0.36133995    0.77828002    0.71173892    0.11990000
opls_146-222    H    0.52244004    0.53750000    0.49097948    0.11850000
opls_146-223    H    0.46246999    0.48465003    0.49097948    0.11590000
opls_146-224    H    0.49535001    0.57715997    0.49493894    0.11590000
opls_146-225    H    0.48035994    0.59929997    0.49750078    0.11530000
opls_146-226    H    0.42030003    0.54627002    0.49432125    0.11690000
opls_146-227    H    0.43543995    0.52433995    0.49169964    0.11710000
opls_144-228    H    0.45087003    0.60432998    0.49647889    0.12100000
opls_526-229    H    0.28685007    0.67037009    0.67269079    0.11550000
opls_146-230    H    0.24988003    0.65146010    0.68068088    0.11690000
opls_146-231    H    0.25057005    0.59724002    0.33198030    0.11740000
opls_526-232    H    0.28754001    0.61596000    0.34275142    0.11550000
opls_146-233    H    0.22109996    0.63640002    0.30206940    0.12000000
opls_146-234    H    0.18396000    0.61746008    0.30834875    0.11770000
opls_146-235    H    0.18490006    0.56423008    0.70596055    0.11960000
opls_146-236    H    0.22171999    0.58305996    0.71173892    0.11990000
opls_146-237    H    0.46250001    0.98494008    0.49097948    0.11850000
opls_146-238    H    0.51535001    0.97782002    0.49097948    0.11590000
opls_146-239    H    0.42283998    0.91819005    0.49493894    0.11590000
opls_146-240    H    0.40070007    0.88106006    0.49750078    0.11530000
opls_146-241    H    0.45373000    0.87403000    0.49432125    0.11700000
opls_146-242    H    0.47566000    0.91110010    0.49169964    0.11710000
opls_144-243    H    0.39567004    0.84654000    0.49647889    0.12100000
opls_526-244    H    0.32962999    0.61648004    0.67269079    0.11550000
opls_146-245    H    0.34853996    0.59841996    0.68068088    0.11690000
opls_146-246    H    0.40276003    0.65333003    0.33198030    0.11740000
opls_526-247    H    0.38404005    0.67157998    0.34275142    0.11550000
opls_146-248    H    0.36359998    0.58470004    0.30206940    0.12000000
opls_146-249    H    0.38254000    0.56649996    0.30834875    0.11770000
opls_146-250    H    0.43577001    0.62067002    0.70596055    0.11960000
opls_146-251    H    0.41694007    0.63866002    0.71173892    0.11990000
