#======================================================================
# Crystal Data Generated By AuToFF
#----------------------------------------------------------------------

data_AuToFF_phase_1

_cell_length_a                         24.2800
_cell_length_b                         24.2800
_cell_length_c                         3.4200
_cell_angle_alpha                      90.00
_cell_angle_beta                       90.00
_cell_angle_gamma                      120.00
_symmetry_space_group_name_H-M_alt     'P 1'
_symmetry_space_group_IT_number        1

loop_
_space_group_symop_operation_xyz
   'x, y, z'

loop_
   _atom_site_label
   _atom_site_type_symbol
   _atom_site_fract_x
   _atom_site_fract_y
   _atom_site_fract_z
   _atom_site_charge
opls_642-0    C    0.72831982    0.38054986    0.05478070    0.38170000
opls_567-1    C    0.79416974    0.43045974    0.11147076    -0.06080000
opls_716-2    C    0.81339987    0.49421984    0.15197953    -0.16600000
opls_716-3    C    0.87632014    0.52888986    0.25147953    -0.16620000
opls_567-4    C    0.90262008    0.49019979    0.28643860    -0.02730000
opls_142-5    C    0.96728999    0.51107999    0.41071053    0.05810000
opls_145-6    C    0.07040973    0.59136971    0.62542982    0.20910000
opls_145-7    C    0.11676989    0.65411968    0.54752924    -0.14960000
opls_145-8    C    0.18100019    0.67381998    0.60124854    -0.12070000
opls_700-9    C    0.19992001    0.63157972    0.75312865    0.07360000
opls_145-10    C    0.15201968    0.57028977    0.86514035    -0.10500000
opls_145-11    C    0.08846987    0.54992985    0.79261988    -0.15240000
opls_700-12    C    0.26844990    0.64973011    0.77926023    0.07570000
opls_145-13    C    0.28624001    0.60278973    0.78137135    -0.15730000
opls_642-14    C    0.61944997    0.34776978    0.05478070    0.38170000
opls_567-15    C    0.56954001    0.36371016    0.11147076    -0.06080000
opls_716-16    C    0.50577987    0.31918001    0.15197953    -0.16600000
opls_716-17    C    0.47110985    0.34742975    0.25147953    -0.16620000
opls_567-18    C    0.50980028    0.41242016    0.28643860    -0.02730000
opls_142-19    C    0.48892000    0.45620984    0.41071053    0.05810000
opls_145-20    C    0.40862992    0.47903991    0.62542982    0.20910000
opls_145-21    C    0.34588024    0.46265010    0.54752924    -0.14960000
opls_145-22    C    0.32618009    0.50717978    0.60124854    -0.12070000
opls_700-23    C    0.36841995    0.56833990    0.75312865    0.07360000
opls_145-24    C    0.42971002    0.58172977    0.86514035    -0.10500000
opls_145-25    C    0.45006973    0.53853979    0.79261988    -0.15240000
opls_700-26    C    0.35026987    0.61872013    0.77926023    0.07570000
opls_145-27    C    0.39721014    0.68344993    0.78137135    -0.15730000
opls_642-28    C    0.65222997    0.27167988    0.05478070    0.38170000
opls_567-29    C    0.63629025    0.20583010    0.11147076    -0.06080000
opls_716-30    C    0.68082026    0.18660015    0.15197953    -0.16600000
opls_716-31    C    0.65256978    0.12367992    0.25147953    -0.16620000
opls_567-32    C    0.58758006    0.09738005    0.28643860    -0.02730000
opls_142-33    C    0.54379001    0.03271017    0.41071053    0.05810000
opls_145-34    C    0.52096011    0.92958991    0.62542982    0.20930000
opls_145-35    C    0.53735004    0.88322974    0.54752924    -0.14960000
opls_145-36    C    0.49281990    0.81899977    0.60124854    -0.12070000
opls_700-37    C    0.43165980    0.80007990    0.75312865    0.07360000
opls_145-38    C    0.41827006    0.84797999    0.86514035    -0.10500000
opls_145-39    C    0.46145975    0.91152988    0.79261988    -0.15240000
opls_700-40    C    0.38127982    0.73154976    0.77926023    0.07570000
opls_145-41    C    0.31655003    0.71375986    0.78137135    -0.15730000
opls_641-42    N    0.68113010    0.39484998    0.05635965    -0.42650000
opls_750-43    N    0.00621983    0.56969007    0.50673099    -0.32530000
opls_641-44    N    0.60514993    0.28628009    0.05635965    -0.42660000
opls_750-45    N    0.43030989    0.43653000    0.50673099    -0.32520000
opls_641-46    N    0.71371998    0.31886993    0.05635965    -0.42670000
opls_750-47    N    0.56346987    0.99377993    0.50673099    -0.32530000
opls_633-48    S    0.85231979    0.41189988    0.19052924    0.08340000
opls_633-49    S    0.58809990    0.44041974    0.19052924    0.08330000
opls_633-50    S    0.55958006    0.14767990    0.19052924    0.08330000
opls_570-51    H    0.78262015    0.51433008    0.12095029    0.12190000
opls_570-52    H    0.90130022    0.57963010    0.30564912    0.12530000
opls_144-53    H    0.98208972    0.47578981    0.41062865    0.10240000
opls_146-54    H    0.10344008    0.68647983    0.41795029    0.12530000
opls_146-55    H    0.21495987    0.72096009    0.50050877    0.13290000
opls_146-56    H    0.16266007    0.53726001    0.01080994    0.13260000
opls_146-57    H    0.05370012    0.50177010    0.87261111    0.13070000
opls_146-58    H    0.25011980    0.55349002    0.77662865    0.10440000
opls_570-59    H    0.48567011    0.26828997    0.12095029    0.12190000
opls_570-60    H    0.42037007    0.32167013    0.30564912    0.12530000
opls_144-61    H    0.52421011    0.50629997    0.41062865    0.10240000
opls_146-62    H    0.31351996    0.41696002    0.41795029    0.12530000
opls_146-63    H    0.27904001    0.49400012    0.50050877    0.13290000
opls_146-64    H    0.46273999    0.62540008    0.01080994    0.13260000
opls_146-65    H    0.49822989    0.55193013    0.87261111    0.13080000
opls_146-66    H    0.44650984    0.69663006    0.77662865    0.10440000
opls_570-67    H    0.73171016    0.21737995    0.12095029    0.12190000
opls_570-68    H    0.67832971    0.09869977    0.30564912    0.12530000
opls_144-69    H    0.49370017    0.01791022    0.41062865    0.10240000
opls_146-70    H    0.58303972    0.89655968    0.41795029    0.12530000
opls_146-71    H    0.50599971    0.78503978    0.50050877    0.13300000
opls_146-72    H    0.37459994    0.83733991    0.01080994    0.13260000
opls_146-73    H    0.44806999    0.94629978    0.87261111    0.13070000
opls_146-74    H    0.30336994    0.74987992    0.77662865    0.10440000
