#======================================================================
# Crystal Data Generated By AuToFF
#----------------------------------------------------------------------

data_AuToFF_phase_1

_cell_length_a                         43.1200
_cell_length_b                         43.1200
_cell_length_c                         7.2800
_cell_angle_alpha                      90.00
_cell_angle_beta                       90.00
_cell_angle_gamma                      120.00
_symmetry_space_group_name_H-M_alt     'P 1'
_symmetry_space_group_IT_number        1

loop_
_space_group_symop_operation_xyz
   'x, y, z'

loop_
   _atom_site_label
   _atom_site_type_symbol
   _atom_site_fract_x
   _atom_site_fract_y
   _atom_site_fract_z
   _atom_site_charge
opls_531-0    C    0.70051007    0.35391996    0.17492033    0.33100000
opls_522-1    C    0.73849995    0.37697996    0.17699038    0.00430000
opls_523-2    C    0.76052990    0.36292994    0.18713049    -0.22180000
opls_145-3    C    0.79605999    0.38415988    0.19242033    -0.22180000
opls_145-4    C    0.81099986    0.42036986    0.18620055    0.01120000
opls_145-5    C    0.78902000    0.43437997    0.17254945    -0.22180000
opls_523-6    C    0.75331003    0.41306997    0.16963049    -0.22170000
opls_142-7    C    0.84829996    0.44336987    0.19584066    0.02730000
opls_234-8    C    0.92662992    0.44773990    0.32461951    0.38590000
opls_145-9    C    0.96397987    0.47607987    0.31970055    -0.11310000
opls_166-10    C    0.97633997    0.51201992    0.32270055    0.19330000
opls_145-11    C    0.01178996    0.53511982    0.32206044    -0.24450000
opls_181-12    C    0.96383994    0.55910984    0.35300962    -0.22100000
opls_531-13    C    0.64608005    0.34659007    0.17492033    0.33100000
opls_522-14    C    0.62301999    0.36152004    0.17699038    0.00430000
opls_523-15    C    0.63706988    0.39759987    0.18713049    -0.22180000
opls_145-16    C    0.61584008    0.41190000    0.19242033    -0.22180000
opls_145-17    C    0.57962988    0.39062990    0.18620055    0.01120000
opls_145-18    C    0.56562011    0.35464004    0.17254945    -0.22180000
opls_523-19    C    0.58693008    0.34024002    0.16963049    -0.22180000
opls_142-20    C    0.55662990    0.40493002    0.19584066    0.02730000
opls_234-21    C    0.55225995    0.47889003    0.32461951    0.38590000
opls_145-22    C    0.52392009    0.48790001    0.31970055    -0.11310000
opls_166-23    C    0.48798002    0.46431997    0.32270055    0.19330000
opls_145-24    C    0.46488003    0.47667007    0.32206044    -0.24450000
opls_181-25    C    0.44089004    0.40472999    0.35300962    -0.22090000
opls_531-26    C    0.65340987    0.29948997    0.17492033    0.33100000
opls_522-27    C    0.63848006    0.26150001    0.17699038    0.00430000
opls_523-28    C    0.60239985    0.23946992    0.18713049    -0.22180000
opls_145-29    C    0.58810003    0.20393985    0.19242033    -0.22180000
opls_145-30    C    0.60936989    0.18899998    0.18620055    0.01120000
opls_145-31    C    0.64535989    0.21097999    0.17254945    -0.22170000
opls_523-32    C    0.65975989    0.24669001    0.16963049    -0.22180000
opls_142-33    C    0.59507014    0.15170010    0.19584066    0.02730000
opls_234-34    C    0.52111013    0.07337007    0.32461951    0.38580000
opls_145-35    C    0.51210004    0.03602012    0.31970055    -0.11310000
opls_166-36    C    0.53568001    0.02366011    0.32270055    0.19330000
opls_145-37    C    0.52332988    0.98820984    0.32206044    -0.24450000
opls_181-38    C    0.59526989    0.03615990    0.35300962    -0.22100000
opls_531-39    C    0.29948993    0.64608004    0.17492033    0.33100000
opls_522-40    C    0.26150005    0.62302004    0.17699038    0.00430000
opls_523-41    C    0.23946996    0.63706979    0.18713049    -0.22170000
opls_145-42    C    0.20393987    0.61583985    0.19242033    -0.22180000
opls_145-43    C    0.18900000    0.57962987    0.18620055    0.01120000
opls_145-44    C    0.21098000    0.56562003    0.17254945    -0.22180000
opls_523-45    C    0.24668997    0.58693003    0.16963049    -0.22170000
opls_142-46    C    0.15169990    0.55662986    0.19584066    0.02730000
opls_234-47    C    0.07336994    0.55225983    0.32461951    0.38580000
opls_145-48    C    0.03602000    0.52391987    0.31970055    -0.11310000
opls_166-49    C    0.02365990    0.48797982    0.32270055    0.19330000
opls_145-50    C    0.98820990    0.46487992    0.32206044    -0.24440000
opls_181-51    C    0.03615993    0.44088989    0.35300962    -0.22100000
opls_531-52    C    0.35391995    0.65340993    0.17492033    0.33100000
opls_522-53    C    0.37698001    0.63847996    0.17699038    0.00430000
opls_523-54    C    0.36292999    0.60239986    0.18713049    -0.22180000
opls_145-55    C    0.38415992    0.58810000    0.19242033    -0.22180000
opls_145-56    C    0.42036998    0.60936984    0.18620055    0.01120000
opls_145-57    C    0.43437989    0.64535996    0.17254945    -0.22180000
opls_523-58    C    0.41306992    0.65975998    0.16963049    -0.22180000
opls_142-59    C    0.44337010    0.59506998    0.19584066    0.02730000
opls_234-60    C    0.44774005    0.52110997    0.32461951    0.38580000
opls_145-61    C    0.47607991    0.51209999    0.31970055    -0.11310000
opls_166-62    C    0.51201998    0.53568003    0.32270055    0.19330000
opls_145-63    C    0.53511997    0.52332993    0.32206044    -0.24450000
opls_181-64    C    0.55910996    0.59527001    0.35300962    -0.22100000
opls_531-65    C    0.34659013    0.70051003    0.17492033    0.33100000
opls_522-66    C    0.36151994    0.73849999    0.17699038    0.00430000
opls_523-67    C    0.39760002    0.76052981    0.18713049    -0.22180000
opls_145-68    C    0.41189984    0.79605988    0.19242033    -0.22180000
opls_145-69    C    0.39063011    0.81100002    0.18620055    0.01120000
opls_145-70    C    0.35464011    0.78902001    0.17254945    -0.22180000
opls_523-71    C    0.34024011    0.75330999    0.16963049    -0.22180000
opls_142-72    C    0.40492986    0.84829990    0.19584066    0.02730000
opls_234-73    C    0.47888987    0.92662993    0.32461951    0.38580000
opls_145-74    C    0.48789996    0.96397988    0.31970055    -0.11300000
opls_166-75    C    0.46431999    0.97633989    0.32270055    0.19330000
opls_145-76    C    0.47666999    0.01178989    0.32206044    -0.24450000
opls_181-77    C    0.40472998    0.96383983    0.35300962    -0.22100000
opls_531-78    C    0.64608010    0.29948997    0.67492033    0.33100000
opls_522-79    C    0.62301995    0.26150001    0.67699038    0.00430000
opls_523-80    C    0.63707007    0.23946992    0.68713049    -0.22180000
opls_145-81    C    0.61583982    0.20393985    0.69242033    -0.22180000
opls_145-82    C    0.57963009    0.18899998    0.68620055    0.01120000
opls_145-83    C    0.56562010    0.21097999    0.67254945    -0.22180000
opls_523-84    C    0.58693012    0.24669001    0.66963049    -0.22180000
opls_142-85    C    0.55662997    0.15170010    0.69584066    0.02730000
opls_234-86    C    0.55225994    0.07337007    0.82461951    0.38580000
opls_145-87    C    0.52392008    0.03602012    0.81970055    -0.11310000
opls_166-88    C    0.48798010    0.02366011    0.82270055    0.19330000
opls_145-89    C    0.46487997    0.98820984    0.82206044    -0.24450000
opls_181-90    C    0.44089002    0.03615990    0.85300962    -0.22100000
opls_531-91    C    0.65340989    0.35391996    0.67492033    0.33100000
opls_522-92    C    0.63848001    0.37697996    0.67699038    0.00430000
opls_523-93    C    0.60240003    0.36292994    0.68713049    -0.22170000
opls_145-94    C    0.58809988    0.38415988    0.69242033    -0.22180000
opls_145-95    C    0.60936999    0.42036986    0.68620055    0.01120000
opls_145-96    C    0.64535998    0.43437997    0.67254945    -0.22180000
opls_523-97    C    0.65975994    0.41306997    0.66963049    -0.22180000
opls_142-98    C    0.59506991    0.44336987    0.69584066    0.02730000
opls_234-99    C    0.52110998    0.44773990    0.82461951    0.38580000
opls_145-100    C    0.51210000    0.47607987    0.81970055    -0.11310000
opls_166-101    C    0.53567995    0.51201992    0.82270055    0.19330000
opls_145-102    C    0.52332985    0.53511982    0.82206044    -0.24450000
opls_181-103    C    0.59526990    0.55910984    0.85300962    -0.22100000
opls_531-104    C    0.70051002    0.34659007    0.67492033    0.33100000
opls_522-105    C    0.73850005    0.36152004    0.67699038    0.00430000
opls_523-106    C    0.76052999    0.39759987    0.68713049    -0.22180000
opls_145-107    C    0.79605993    0.41190000    0.69242033    -0.22180000
opls_145-108    C    0.81100001    0.39062990    0.68620055    0.01120000
opls_145-109    C    0.78901993    0.35464004    0.67254945    -0.22180000
opls_523-110    C    0.75330995    0.34024002    0.66963049    -0.22180000
opls_142-111    C    0.84830012    0.40493002    0.69584066    0.02730000
opls_234-112    C    0.92663008    0.47889003    0.82461951    0.38580000
opls_145-113    C    0.96397992    0.48790001    0.81970055    -0.11310000
opls_166-114    C    0.97633995    0.46431997    0.82270055    0.19330000
opls_145-115    C    0.01179004    0.47667007    0.82206044    -0.24450000
opls_181-116    C    0.96383995    0.40472999    0.85300962    -0.22100000
opls_531-117    C    0.35391990    0.70051003    0.67492033    0.33100000
opls_522-118    C    0.37698005    0.73849999    0.67699038    0.00430000
opls_523-119    C    0.36292979    0.76052981    0.68713049    -0.22180000
opls_145-120    C    0.38416004    0.79605988    0.69242033    -0.22180000
opls_145-121    C    0.42036991    0.81100002    0.68620055    0.01120000
opls_145-122    C    0.43437990    0.78902001    0.67254945    -0.22180000
opls_523-123    C    0.41306988    0.75330999    0.66963049    -0.22180000
opls_142-124    C    0.44337003    0.84829990    0.69584066    0.02730000
opls_234-125    C    0.44774006    0.92662993    0.82461951    0.38580000
opls_145-126    C    0.47607992    0.96397988    0.81970055    -0.11300000
opls_166-127    C    0.51201990    0.97633989    0.82270055    0.19330000
opls_145-128    C    0.53511990    0.01178989    0.82206044    -0.24450000
opls_181-129    C    0.55910985    0.96383983    0.85300962    -0.22100000
opls_531-130    C    0.34659011    0.64608004    0.67492033    0.33100000
opls_522-131    C    0.36151999    0.62302004    0.67699038    0.00430000
opls_523-132    C    0.39759983    0.63706979    0.68713049    -0.22180000
opls_145-133    C    0.41189998    0.61583985    0.69242033    -0.22180000
opls_145-134    C    0.39062987    0.57962987    0.68620055    0.01120000
opls_145-135    C    0.35464002    0.56562003    0.67254945    -0.22170000
opls_523-136    C    0.34024006    0.58693003    0.66963049    -0.22180000
opls_142-137    C    0.40492996    0.55662986    0.69584066    0.02730000
opls_234-138    C    0.47888989    0.55225983    0.82461951    0.38580000
opls_145-139    C    0.48789987    0.52391987    0.81970055    -0.11310000
opls_166-140    C    0.46431992    0.48797982    0.82270055    0.19330000
opls_145-141    C    0.47667001    0.46487992    0.82206044    -0.24450000
opls_181-142    C    0.40472996    0.44088989    0.85300962    -0.22100000
opls_531-143    C    0.29948998    0.65340993    0.67492033    0.33100000
opls_522-144    C    0.26149995    0.63847996    0.67699038    0.00430000
opls_523-145    C    0.23946987    0.60239986    0.68713049    -0.22170000
opls_145-146    C    0.20394007    0.58810000    0.69242033    -0.22180000
opls_145-147    C    0.18899985    0.60936984    0.68620055    0.01120000
opls_145-148    C    0.21098007    0.64535996    0.67254945    -0.22180000
opls_523-149    C    0.24669005    0.65975998    0.66963049    -0.22170000
opls_142-150    C    0.15169988    0.59506998    0.69584066    0.02730000
opls_234-151    C    0.07336992    0.52110997    0.82461951    0.38580000
opls_145-152    C    0.03602008    0.51209999    0.81970055    -0.11310000
opls_166-153    C    0.02366005    0.53568003    0.82270055    0.19330000
opls_145-154    C    0.98820996    0.52332993    0.82206044    -0.24430000
opls_181-155    C    0.03616005    0.59527001    0.85300962    -0.22100000
opls_520-156    N    0.68812994    0.31954004    0.17478022    -0.40010000
opls_750-157    N    0.86846004    0.43201005    0.24940934    -0.01400000
opls_238-158    N    0.90305996    0.45600999    0.25411951    -0.25850000
opls_520-159    N    0.68045984    0.36858990    0.17478022    -0.40000000
opls_750-160    N    0.56799006    0.43644997    0.24940934    -0.01400000
opls_238-161    N    0.54399002    0.44705008    0.25411951    -0.25840000
opls_520-162    N    0.63140999    0.31187006    0.17478022    -0.40010000
opls_750-163    N    0.56354991    0.13153998    0.24940934    -0.01400000
opls_238-164    N    0.55295002    0.09693994    0.25411951    -0.25850000
opls_520-165    N    0.31187006    0.68045996    0.17478022    -0.40010000
opls_750-166    N    0.13153996    0.56798995    0.24940934    -0.01400000
opls_238-167    N    0.09694004    0.54399001    0.25411951    -0.25850000
opls_520-168    N    0.31954003    0.63140983    0.17478022    -0.40010000
opls_750-169    N    0.43200994    0.56355003    0.24940934    -0.01400000
opls_238-170    N    0.45600998    0.55294992    0.25411951    -0.25850000
opls_520-171    N    0.36859001    0.68812994    0.17478022    -0.40010000
opls_750-172    N    0.43645009    0.86846002    0.24940934    -0.01400000
opls_238-173    N    0.44704984    0.90305980    0.25411951    -0.25850000
opls_520-174    N    0.68046008    0.31187006    0.67478022    -0.40010000
opls_750-175    N    0.56799007    0.13153998    0.74940934    -0.01400000
opls_238-176    N    0.54398991    0.09693994    0.75411951    -0.25850000
opls_520-177    N    0.63141009    0.31954004    0.67478022    -0.40000000
opls_750-178    N    0.56355002    0.43201005    0.74940934    -0.01400000
opls_238-179    N    0.55295003    0.45600999    0.75411951    -0.25850000
opls_520-180    N    0.68813006    0.36858990    0.67478022    -0.40000000
opls_750-181    N    0.86845991    0.43644997    0.74940934    -0.01400000
opls_238-182    N    0.90306006    0.44705008    0.75411951    -0.25850000
opls_520-183    N    0.31953992    0.68812994    0.67478022    -0.40010000
opls_750-184    N    0.43200993    0.86846002    0.74940934    -0.01400000
opls_238-185    N    0.45600995    0.90305980    0.75411951    -0.25840000
opls_520-186    N    0.36858991    0.68045996    0.67478022    -0.40000000
opls_750-187    N    0.43644998    0.56798995    0.74940934    -0.01400000
opls_238-188    N    0.44704997    0.54399001    0.75411951    -0.25850000
opls_520-189    N    0.31186980    0.63140983    0.67478022    -0.40010000
opls_750-190    N    0.13154009    0.56355003    0.74940934    -0.01400000
opls_238-191    N    0.09693994    0.55294992    0.75411951    -0.25850000
opls_236-192    O    0.91841986    0.41870984    0.38714011    -0.42820000
opls_179-193    O    0.95199988    0.52263984    0.33253022    -0.15680000
opls_236-194    O    0.58129006    0.49970999    0.38714011    -0.42840000
opls_179-195    O    0.47735998    0.42936002    0.33253022    -0.15680000
opls_236-196    O    0.50028995    0.08157990    0.38714011    -0.42840000
opls_179-197    O    0.57064001    0.04799987    0.33253022    -0.15680000
opls_236-198    O    0.08158001    0.58128989    0.38714011    -0.42840000
opls_179-199    O    0.04799998    0.47735989    0.33253022    -0.15670000
opls_236-200    O    0.41870994    0.50029001    0.38714011    -0.42840000
opls_179-201    O    0.52264002    0.57063998    0.33253022    -0.15670000
opls_236-202    O    0.49970991    0.91841983    0.38714011    -0.42820000
opls_179-203    O    0.42935986    0.95199987    0.33253022    -0.15680000
opls_236-204    O    0.58128995    0.08157990    0.88714011    -0.42840000
opls_179-205    O    0.47735986    0.04799987    0.83253022    -0.15680000
opls_236-206    O    0.50028999    0.41870984    0.88714011    -0.42840000
opls_179-207    O    0.57063996    0.52263984    0.83253022    -0.15680000
opls_236-208    O    0.91841993    0.49970999    0.88714011    -0.42830000
opls_179-209    O    0.95200005    0.42936002    0.83253022    -0.15670000
opls_236-210    O    0.41870991    0.91841983    0.88714011    -0.42840000
opls_179-211    O    0.52264001    0.95199987    0.83253022    -0.15680000
opls_236-212    O    0.49970988    0.58128989    0.88714011    -0.42840000
opls_179-213    O    0.42935991    0.47735989    0.83253022    -0.15680000
opls_236-214    O    0.08158007    0.50029001    0.88714011    -0.42820000
opls_179-215    O    0.04799995    0.57063998    0.83253022    -0.15680000
opls_526-216    H    0.74922995    0.33520990    0.19139011    0.21440000
opls_146-217    H    0.81278011    0.37321004    0.20113049    0.21440000
opls_146-218    H    0.80014982    0.46214982    0.16610989    0.21450000
opls_526-219    H    0.73659012    0.42399008    0.16121978    0.21440000
opls_144-220    H    0.85843003    0.47046998    0.15886951    0.10480000
opls_910-221    H    0.91132003    0.48044989    0.20793956    0.23640000
opls_146-222    H    0.02198989    0.56264999    0.32650000    0.21440000
opls_185-223    H    0.97857998    0.57358992    0.23118956    0.09270000
opls_185-224    H    0.97949994    0.56929997    0.47857967    0.08900000
opls_185-225    H    0.94048001    0.56067988    0.36535027    0.17550000
opls_526-226    H    0.66478995    0.41402008    0.19139011    0.21440000
opls_146-227    H    0.62679008    0.43956997    0.20113049    0.21440000
opls_146-228    H    0.53784994    0.33799998    0.16610989    0.21440000
opls_526-229    H    0.57601014    0.31260005    0.16121978    0.21440000
opls_144-230    H    0.52953012    0.38796005    0.15886951    0.10490000
opls_910-231    H    0.51955007    0.43087008    0.20793956    0.23640000
opls_146-232    H    0.43734993    0.45933992    0.32650000    0.21440000
opls_185-233    H    0.42640989    0.40499001    0.23118956    0.09260000
opls_185-234    H    0.43069986    0.41019982    0.47857967    0.08900000
opls_185-235    H    0.43932000    0.37980003    0.36535027    0.17550000
opls_526-236    H    0.58598010    0.25077002    0.19139011    0.21440000
opls_146-237    H    0.56043003    0.18721999    0.20113049    0.21440000
opls_146-238    H    0.66199987    0.19984993    0.16610989    0.21440000
opls_526-239    H    0.68739997    0.26340987    0.16121978    0.21440000
opls_144-240    H    0.61204008    0.14156996    0.15886951    0.10480000
opls_910-241    H    0.56912990    0.08868003    0.20793956    0.23640000
opls_146-242    H    0.54065982    0.97800981    0.32650000    0.21440000
opls_185-243    H    0.59501013    0.02142007    0.23118956    0.09260000
opls_185-244    H    0.58980007    0.02049995    0.47857967    0.08900000
opls_185-245    H    0.62019998    0.05952009    0.36535027    0.17550000
opls_526-246    H    0.25076992    0.66478983    0.19139011    0.21440000
opls_146-247    H    0.18721989    0.62678996    0.20113049    0.21440000
opls_146-248    H    0.19985005    0.53784991    0.16610989    0.21440000
opls_526-249    H    0.26340988    0.57600992    0.16121978    0.21440000
opls_144-250    H    0.14156997    0.52953002    0.15886951    0.10480000
opls_910-251    H    0.08867984    0.51954984    0.20793956    0.23650000
opls_146-252    H    0.97801011    0.43735001    0.32650000    0.21440000
opls_185-253    H    0.02142002    0.42641008    0.23118956    0.09270000
opls_185-254    H    0.02050006    0.43070003    0.47857967    0.08910000
opls_185-255    H    0.05951985    0.43931985    0.36535027    0.17550000
opls_526-256    H    0.33521005    0.58597992    0.19139011    0.21440000
opls_146-257    H    0.37320992    0.56043003    0.20113049    0.21440000
opls_146-258    H    0.46215006    0.66200002    0.16610989    0.21450000
opls_526-259    H    0.42398986    0.68739995    0.16121978    0.21440000
opls_144-260    H    0.47046988    0.61203995    0.15886951    0.10480000
opls_910-261    H    0.48044993    0.56912992    0.20793956    0.23650000
opls_146-262    H    0.56264994    0.54065981    0.32650000    0.21440000
opls_185-263    H    0.57359011    0.59500999    0.23118956    0.09260000
opls_185-264    H    0.56930000    0.58979991    0.47857967    0.08900000
opls_185-265    H    0.56068000    0.62019997    0.36535027    0.17550000
opls_526-266    H    0.41401990    0.74922998    0.19139011    0.21440000
opls_146-267    H    0.43956997    0.81278001    0.20113049    0.21440000
opls_146-268    H    0.33799999    0.80014980    0.16610989    0.21440000
opls_526-269    H    0.31259989    0.73658986    0.16121978    0.21440000
opls_144-270    H    0.38795978    0.85842977    0.15886951    0.10480000
opls_910-271    H    0.43087010    0.91131997    0.20793956    0.23640000
opls_146-272    H    0.45934004    0.02198992    0.32650000    0.21440000
opls_185-273    H    0.40498987    0.97857993    0.23118956    0.09270000
opls_185-274    H    0.41019980    0.97949978    0.47857967    0.08900000
opls_185-275    H    0.37980002    0.94047991    0.36535027    0.17550000
opls_526-276    H    0.66478993    0.25077002    0.69139011    0.21440000
opls_146-277    H    0.62678996    0.18721999    0.70113049    0.21440000
opls_146-278    H    0.53785006    0.19984993    0.66610989    0.21440000
opls_526-279    H    0.57600990    0.26340987    0.66121978    0.21440000
opls_144-280    H    0.52952988    0.14156996    0.65886951    0.10480000
opls_910-281    H    0.51955012    0.08868003    0.70793956    0.23640000
opls_146-282    H    0.43734999    0.97800981    0.82650000    0.21440000
opls_185-283    H    0.42640994    0.02142007    0.73118956    0.09260000
opls_185-284    H    0.43069988    0.02049995    0.97857967    0.08900000
opls_185-285    H    0.43932011    0.05952009    0.86535027    0.17550000
opls_526-286    H    0.58597995    0.33520990    0.69139011    0.21440000
opls_146-287    H    0.56042993    0.37321004    0.70113049    0.21450000
opls_146-288    H    0.66200000    0.46214982    0.66610989    0.21440000
opls_526-289    H    0.68739996    0.42399008    0.66121978    0.21440000
opls_144-290    H    0.61203995    0.47046998    0.65886951    0.10480000
opls_910-291    H    0.56912986    0.48044989    0.70793956    0.23640000
opls_146-292    H    0.54066011    0.56264999    0.82650000    0.21440000
opls_185-293    H    0.59500994    0.57358992    0.73118956    0.09260000
opls_185-294    H    0.58980003    0.56929997    0.97857967    0.08900000
opls_185-295    H    0.62019987    0.56067988    0.86535027    0.17550000
opls_526-296    H    0.74923012    0.41402008    0.69139011    0.21450000
opls_146-297    H    0.81277988    0.43956997    0.70113049    0.21440000
opls_146-298    H    0.80015004    0.33799998    0.66610989    0.21440000
opls_526-299    H    0.73658991    0.31260005    0.66121978    0.21440000
opls_144-300    H    0.85842993    0.38796005    0.65886951    0.10480000
opls_910-301    H    0.91132001    0.43087008    0.70793956    0.23640000
opls_146-302    H    0.02199000    0.45933992    0.82650000    0.21440000
opls_185-303    H    0.97858012    0.40499001    0.73118956    0.09260000
opls_185-304    H    0.97949996    0.41019982    0.97857967    0.08900000
opls_185-305    H    0.94048002    0.37980003    0.86535027    0.17550000
opls_526-306    H    0.33521007    0.74922998    0.69139011    0.21440000
opls_146-307    H    0.37321004    0.81278001    0.70113049    0.21440000
opls_146-308    H    0.46214981    0.80014980    0.66610989    0.21450000
opls_526-309    H    0.42398997    0.73658986    0.66121978    0.21440000
opls_144-310    H    0.47046999    0.85842977    0.65886951    0.10480000
opls_910-311    H    0.48044988    0.91131997    0.70793956    0.23640000
opls_146-312    H    0.56264988    0.02198992    0.82650000    0.21440000
opls_185-313    H    0.57359006    0.97857993    0.73118956    0.09260000
opls_185-314    H    0.56929998    0.97949978    0.97857967    0.08900000
opls_185-315    H    0.56067989    0.94047991    0.86535027    0.17570000
opls_526-316    H    0.41401992    0.66478983    0.69139011    0.21440000
opls_146-317    H    0.43957007    0.62678996    0.70113049    0.21440000
opls_146-318    H    0.33799986    0.53784991    0.66610989    0.21440000
opls_526-319    H    0.31260004    0.57600992    0.66121978    0.21440000
opls_144-320    H    0.38796005    0.52953002    0.65886951    0.10480000
opls_910-321    H    0.43087000    0.51954984    0.70793956    0.23650000
opls_146-322    H    0.45933989    0.43735001    0.82650000    0.21440000
opls_185-323    H    0.40499006    0.42641008    0.73118956    0.09260000
opls_185-324    H    0.41019997    0.43070003    0.97857967    0.08900000
opls_185-325    H    0.37980000    0.43931985    0.86535027    0.17550000
opls_526-326    H    0.25076988    0.58597992    0.69139011    0.21440000
opls_146-327    H    0.18722012    0.56043003    0.70113049    0.21450000
opls_146-328    H    0.19984996    0.66200002    0.66610989    0.21440000
opls_526-329    H    0.26341009    0.68739995    0.66121978    0.21440000
opls_144-330    H    0.14157007    0.61203995    0.65886951    0.10480000
opls_910-331    H    0.08867999    0.56912992    0.70793956    0.23640000
opls_146-332    H    0.97800987    0.54065981    0.82650000    0.21440000
opls_185-333    H    0.02141988    0.59500999    0.73118956    0.09260000
opls_185-334    H    0.02049991    0.58979991    0.97857967    0.08900000
opls_185-335    H    0.05951998    0.62019997    0.86535027    0.17550000
