#======================================================================
# Crystal Data Generated By AuToFF
#----------------------------------------------------------------------

data_AuToFF_phase_1

_cell_length_a                         29.9500
_cell_length_b                         29.9500
_cell_length_c                         26.6900
_cell_angle_alpha                      90.00
_cell_angle_beta                       90.00
_cell_angle_gamma                      120.00
_symmetry_space_group_name_H-M_alt     'P 1'
_symmetry_space_group_IT_number        1

loop_
_space_group_symop_operation_xyz
   'x, y, z'

loop_
   _atom_site_label
   _atom_site_type_symbol
   _atom_site_fract_x
   _atom_site_fract_y
   _atom_site_fract_z
   _atom_site_charge
opls_145-0    C    0.46926986    0.94061986    0.03911990    0.04940000
opls_145-1    C    0.50374007    0.93941003    0.07126002    -0.16770000
opls_145-2    C    0.41816003    0.91033008    0.04808992    -0.16770000
opls_145-3    C    0.48733003    0.91058993    0.11327988    -0.16760000
opls_145-4    C    0.40170997    0.88098989    0.08962982    -0.16770000
opls_145-5    C    0.43606993    0.88185003    0.12344998    0.08530000
opls_521-6    C    0.31839991    0.56814006    0.50733009    0.16380000
opls_142-7    C    0.20013977    0.54727988    0.33956988    0.12910000
opls_522-8    C    0.20744009    0.67793994    0.52969015    -0.17350000
opls_523-9    C    0.18914019    0.64970009    0.57153016    -0.16730000
opls_522-10    C    0.21277011    0.62511017    0.59146010    -0.00940000
opls_521-11    C    0.25382009    0.62788993    0.56700000    0.13200000
opls_145-12    C    0.44393011    0.54733000    0.80304983    0.04940000
opls_145-13    C    0.44476005    0.59147002    0.78921993    -0.16750000
opls_145-14    C    0.43217997    0.59726010    0.74202997    -0.17410000
opls_145-15    C    0.41896976    0.55893985    0.70792994    0.24490000
opls_145-16    C    0.41949010    0.51569005    0.72149007    -0.17340000
opls_145-17    C    0.43189988    0.50984985    0.76846010    -0.16770000
opls_141-18    C    0.48818995    0.51335019    0.99708992    0.01630000
opls_145-19    C    0.04773983    0.52442992    0.94843012    0.04290000
opls_145-20    C    0.06510017    0.49522004    0.92627988    -0.16740000
opls_145-21    C    0.04957996    0.56451017    0.92318996    -0.16750000
opls_145-22    C    0.08387985    0.50585986    0.87923005    -0.16770000
opls_145-23    C    0.06816013    0.57506016    0.87613001    -0.16770000
opls_145-24    C    0.08520005    0.54564017    0.85355002    0.04940000
opls_521-25    C    0.43941989    0.72578001    0.46418996    0.16370000
opls_142-26    C    0.40316989    0.80358987    0.63853990    0.12810000
opls_522-27    C    0.25850983    0.74476992    0.44342001    -0.17360000
opls_523-28    C    0.28367994    0.77339994    0.40337992    -0.16790000
opls_522-29    C    0.32370005    0.77057006    0.38330985    -0.01330000
opls_521-30    C    0.33908021    0.73957010    0.40527014    0.13150000
opls_145-31    C    0.43736983    0.58163984    0.17047996    0.07220000
opls_145-32    C    0.39029012    0.55806004    0.19304983    -0.16760000
opls_145-33    C    0.38381007    0.57440011    0.23827988    -0.17400000
opls_145-34    C    0.42424007    0.61403006    0.26188010    0.24600000
opls_145-35    C    0.47088009    0.63851009    0.23853016    -0.17400000
opls_145-36    C    0.47742990    0.62210988    0.19382016    -0.16750000
opls_145-37    C    0.05938013    0.52865007    0.03911990    0.04940000
opls_145-38    C    0.06059010    0.56433012    0.07126002    -0.16770000
opls_145-39    C    0.08966992    0.50782999    0.04808992    -0.16770000
opls_145-40    C    0.08941005    0.57673997    0.11327988    -0.16760000
opls_145-41    C    0.11901000    0.52071984    0.08962982    -0.16770000
opls_145-42    C    0.11815008    0.55422004    0.12344998    0.08530000
opls_521-43    C    0.43185991    0.75026005    0.50733009    0.16380000
opls_142-44    C    0.45272015    0.65285999    0.33956988    0.12910000
opls_522-45    C    0.32205994    0.52950019    0.52969015    -0.17350000
opls_523-46    C    0.35029990    0.53943987    0.57153016    -0.16730000
opls_522-47    C    0.37489014    0.58766009    0.59146010    -0.00940000
opls_521-48    C    0.37210982    0.62592983    0.56700000    0.13200000
opls_145-49    C    0.45267001    0.89660013    0.80304983    0.04940000
opls_145-50    C    0.40853023    0.85329018    0.78921993    -0.16750000
opls_145-51    C    0.40274005    0.83491984    0.74202997    -0.17410000
opls_145-52    C    0.44106000    0.86002986    0.70792994    0.24490000
opls_145-53    C    0.48431009    0.90380014    0.72149007    -0.17340000
opls_145-54    C    0.49014997    0.92205019    0.76846010    -0.16770000
opls_141-55    C    0.48664998    0.97483986    0.99708992    0.01630000
opls_145-56    C    0.47556982    0.52330992    0.94843012    0.04290000
opls_145-57    C    0.50478007    0.56988001    0.92627988    -0.16740000
opls_145-58    C    0.43548985    0.48506986    0.92318996    -0.16750000
opls_145-59    C    0.49413987    0.57801998    0.87923005    -0.16770000
opls_145-60    C    0.42493995    0.49309994    0.87613001    -0.16770000
opls_145-61    C    0.45436005    0.53956016    0.85355002    0.04940000
opls_521-62    C    0.27422002    0.71364004    0.46418996    0.16370000
opls_142-63    C    0.19640999    0.59957991    0.63853990    0.12810000
opls_522-64    C    0.25522992    0.51373997    0.44342001    -0.17360000
opls_523-65    C    0.22660016    0.51028011    0.40337992    -0.16790000
opls_522-66    C    0.22943016    0.55313011    0.38330985    -0.01330000
opls_521-67    C    0.26043019    0.59951013    0.40527014    0.13150000
opls_145-68    C    0.41836011    0.85572990    0.17047996    0.07220000
opls_145-69    C    0.44194000    0.83222991    0.19304983    -0.16760000
opls_145-70    C    0.42560017    0.80941002    0.23827988    -0.17400000
opls_145-71    C    0.38597012    0.81021002    0.26188010    0.24600000
opls_145-72    C    0.36148977    0.83236986    0.23853016    -0.17400000
opls_145-73    C    0.37789008    0.85532007    0.19382016    -0.16750000
opls_145-74    C    0.47135001    0.53073007    0.03911990    0.04940000
opls_145-75    C    0.43566982    0.49625985    0.07126002    -0.16770000
opls_145-76    C    0.49217005    0.58183993    0.04808992    -0.16770000
opls_145-77    C    0.42325992    0.51267009    0.11327988    -0.16760000
opls_145-78    C    0.47927983    0.59828989    0.08962982    -0.16770000
opls_145-79    C    0.44577999    0.56392993    0.12344998    0.08530000
opls_521-80    C    0.24973985    0.68159989    0.50733009    0.16380000
opls_142-81    C    0.34714008    0.79986013    0.33956988    0.12910000
opls_522-82    C    0.47049997    0.79255987    0.52969015    -0.17350000
opls_523-83    C    0.46055991    0.81086005    0.57153016    -0.16730000
opls_522-84    C    0.41233994    0.78723013    0.59146010    -0.00940000
opls_521-85    C    0.37406989    0.74617985    0.56700000    0.13200000
opls_145-86    C    0.10339988    0.55606987    0.80304983    0.04940000
opls_145-87    C    0.14671024    0.55524018    0.78921993    -0.16750000
opls_145-88    C    0.16507998    0.56782006    0.74202997    -0.17410000
opls_145-89    C    0.13997005    0.58102991    0.70792994    0.24490000
opls_145-90    C    0.09620001    0.58051020    0.72149007    -0.17340000
opls_145-91    C    0.07794981    0.56809996    0.76846010    -0.16770000
opls_141-92    C    0.02516006    0.51180995    0.99708992    0.01630000
opls_145-93    C    0.47669002    0.95226017    0.94843012    0.04290000
opls_145-94    C    0.43012009    0.93489995    0.92627988    -0.16740000
opls_145-95    C    0.51492985    0.95041997    0.92318996    -0.16750000
opls_145-96    C    0.42197995    0.91612016    0.87923005    -0.16770000
opls_145-97    C    0.50689991    0.93183989    0.87613001    -0.16770000
opls_145-98    C    0.46044010    0.91480006    0.85355002    0.04940000
opls_521-99    C    0.28636009    0.56057995    0.46418996    0.16370000
opls_142-100    C    0.40041993    0.59682984    0.63853990    0.12810000
opls_522-101    C    0.48625991    0.74149011    0.44342001    -0.17360000
opls_523-102    C    0.48971991    0.71631995    0.40337992    -0.16790000
opls_522-103    C    0.44686979    0.67629984    0.38330985    -0.01330000
opls_521-104    C    0.40049013    0.66092015    0.40527014    0.13150000
opls_145-105    C    0.14426986    0.56262988    0.17047996    0.07220000
opls_145-106    C    0.16776988    0.60971005    0.19304983    -0.16760000
opls_145-107    C    0.19059009    0.61618987    0.23827988    -0.17400000
opls_145-108    C    0.18978981    0.57575992    0.26188010    0.24600000
opls_145-109    C    0.16763014    0.52912004    0.23853016    -0.17400000
opls_145-110    C    0.14468002    0.52257006    0.19382016    -0.16750000
opls_145-111    C    0.53073014    0.05938014    0.96088010    0.04940000
opls_145-112    C    0.49625993    0.06058997    0.92873998    -0.16770000
opls_145-113    C    0.58183997    0.08966992    0.95191008    -0.16770000
opls_145-114    C    0.51266997    0.08941007    0.88672012    -0.16760000
opls_145-115    C    0.59829003    0.11901011    0.91037018    -0.16770000
opls_145-116    C    0.56393007    0.11814997    0.87655002    0.08530000
opls_521-117    C    0.68160009    0.43185994    0.49266991    0.16380000
opls_142-118    C    0.79985989    0.45272012    0.66043012    0.12910000
opls_522-119    C    0.79255991    0.32206006    0.47030985    -0.17350000
opls_523-120    C    0.81085981    0.35029991    0.42846984    -0.16730000
opls_522-121    C    0.78722989    0.37488983    0.40853990    -0.00940000
opls_521-122    C    0.74617991    0.37211007    0.43300000    0.13200000
opls_145-123    C    0.55606989    0.45267000    0.19695017    0.04940000
opls_145-124    C    0.55523995    0.40852998    0.21078007    -0.16750000
opls_145-125    C    0.56782003    0.40273990    0.25797003    -0.17410000
opls_145-126    C    0.58102991    0.44106015    0.29207006    0.24490000
opls_145-127    C    0.58050990    0.48430995    0.27850993    -0.17340000
opls_145-128    C    0.56810012    0.49015015    0.23153990    -0.16770000
opls_141-129    C    0.51181024    0.48665020    0.00291008    0.01630000
opls_145-130    C    0.95226017    0.47557008    0.05156988    0.04290000
opls_145-131    C    0.93489983    0.50477996    0.07372012    -0.16740000
opls_145-132    C    0.95042004    0.43548983    0.07681004    -0.16750000
opls_145-133    C    0.91612015    0.49414014    0.12076995    -0.16770000
opls_145-134    C    0.93183987    0.42493984    0.12386999    -0.16770000
opls_145-135    C    0.91479995    0.45435983    0.14644998    0.04940000
opls_521-136    C    0.56058011    0.27421999    0.53581004    0.16370000
opls_142-137    C    0.59683011    0.19641013    0.36146010    0.12810000
opls_522-138    C    0.74149017    0.25523008    0.55657999    -0.17360000
opls_523-139    C    0.71632006    0.22660006    0.59662008    -0.16790000
opls_522-140    C    0.67629995    0.22942994    0.61669015    -0.01330000
opls_521-141    C    0.66091979    0.26042990    0.59472986    0.13150000
opls_145-142    C    0.56263017    0.41836016    0.82952004    0.07220000
opls_145-143    C    0.60970988    0.44193996    0.80695017    -0.16760000
opls_145-144    C    0.61618993    0.42559989    0.76172012    -0.17400000
opls_145-145    C    0.57575993    0.38596994    0.73811990    0.24600000
opls_145-146    C    0.52911991    0.36148991    0.76146984    -0.17400000
opls_145-147    C    0.52257010    0.37789012    0.80617984    -0.16750000
opls_145-148    C    0.94061987    0.47134993    0.96088010    0.04940000
opls_145-149    C    0.93940990    0.43566988    0.92873998    -0.16770000
opls_145-150    C    0.91033008    0.49217001    0.95191008    -0.16770000
opls_145-151    C    0.91058995    0.42326003    0.88672012    -0.16760000
opls_145-152    C    0.88099000    0.47928016    0.91037018    -0.16770000
opls_145-153    C    0.88184992    0.44577996    0.87655002    0.08530000
opls_521-154    C    0.56814009    0.24973995    0.49266991    0.16380000
opls_142-155    C    0.54727985    0.34714001    0.66043012    0.12910000
opls_522-156    C    0.67794025    0.47050020    0.47030985    -0.17350000
opls_523-157    C    0.64970010    0.46056013    0.42846984    -0.16730000
opls_522-158    C    0.62510986    0.41233991    0.40853990    -0.00940000
opls_521-159    C    0.62789018    0.37407017    0.43300000    0.13200000
opls_145-160    C    0.54732999    0.10339987    0.19695017    0.04940000
opls_145-161    C    0.59146977    0.14670982    0.21078007    -0.16750000
opls_145-162    C    0.59725995    0.16508016    0.25797003    -0.17410000
opls_145-163    C    0.55894000    0.13997014    0.29207006    0.24490000
opls_145-164    C    0.51568991    0.09619986    0.27850993    -0.17340000
opls_145-165    C    0.50985022    0.07795019    0.23153990    -0.16770000
opls_141-166    C    0.51335002    0.02516014    0.00291008    0.01630000
opls_145-167    C    0.52443018    0.47669008    0.05156988    0.04290000
opls_145-168    C    0.49521993    0.43011999    0.07372012    -0.16740000
opls_145-169    C    0.56451015    0.51493014    0.07681004    -0.16750000
opls_145-170    C    0.50586013    0.42198002    0.12076995    -0.16770000
opls_145-171    C    0.57506005    0.50690006    0.12386999    -0.16770000
opls_145-172    C    0.54563995    0.46043984    0.14644998    0.04940000
opls_521-173    C    0.72577998    0.28635996    0.53581004    0.16370000
opls_142-174    C    0.80359001    0.40042009    0.36146010    0.12810000
opls_522-175    C    0.74477008    0.48626003    0.55657999    -0.17360000
opls_523-176    C    0.77339984    0.48971989    0.59662008    -0.16790000
opls_522-177    C    0.77056984    0.44686989    0.61669015    -0.01330000
opls_521-178    C    0.73956981    0.40048987    0.59472986    0.13150000
opls_145-179    C    0.58163989    0.14427010    0.82952004    0.07220000
opls_145-180    C    0.55806000    0.16777009    0.80695017    -0.16760000
opls_145-181    C    0.57439983    0.19058998    0.76172012    -0.17400000
opls_145-182    C    0.61402988    0.18978998    0.73811990    0.24600000
opls_145-183    C    0.63851023    0.16763014    0.76146984    -0.17400000
opls_145-184    C    0.62210992    0.14467993    0.80617984    -0.16750000
opls_145-185    C    0.52864999    0.46926993    0.96088010    0.04940000
opls_145-186    C    0.56433018    0.50374015    0.92873998    -0.16770000
opls_145-187    C    0.50782995    0.41816007    0.95191008    -0.16770000
opls_145-188    C    0.57674008    0.48732991    0.88672012    -0.16760000
opls_145-189    C    0.52072017    0.40171011    0.91037018    -0.16770000
opls_145-190    C    0.55422001    0.43607007    0.87655002    0.08530000
opls_521-191    C    0.75026015    0.31840011    0.49266991    0.16380000
opls_142-192    C    0.65285992    0.20013987    0.66043012    0.12910000
opls_522-193    C    0.52950003    0.20744013    0.47030985    -0.17350000
opls_523-194    C    0.53944009    0.18913995    0.42846984    -0.16730000
opls_522-195    C    0.58766006    0.21276987    0.40853990    -0.00940000
opls_521-196    C    0.62593011    0.25382015    0.43300000    0.13200000
opls_145-197    C    0.89660012    0.44393013    0.19695017    0.04940000
opls_145-198    C    0.85328995    0.44476020    0.21078007    -0.16750000
opls_145-199    C    0.83492002    0.43217994    0.25797003    -0.17410000
opls_145-200    C    0.86002995    0.41897009    0.29207006    0.24490000
opls_145-201    C    0.90380019    0.41949019    0.27850993    -0.17340000
opls_145-202    C    0.92204985    0.43190004    0.23153990    -0.16770000
opls_141-203    C    0.97483994    0.48819005    0.00291008    0.01630000
opls_145-204    C    0.52330998    0.04773983    0.05156988    0.04280000
opls_145-205    C    0.56987991    0.06510005    0.07372012    -0.16740000
opls_145-206    C    0.48507015    0.04958003    0.07681004    -0.16750000
opls_145-207    C    0.57802005    0.08387984    0.12076995    -0.16770000
opls_145-208    C    0.49310009    0.06816011    0.12386999    -0.16770000
opls_145-209    C    0.53955990    0.08519994    0.14644998    0.04940000
opls_521-210    C    0.71363991    0.43942005    0.53581004    0.16370000
opls_142-211    C    0.59958007    0.40317016    0.36146010    0.12810000
opls_522-212    C    0.51374009    0.25850989    0.55657999    -0.17360000
opls_523-213    C    0.51028009    0.28368005    0.59662008    -0.16790000
opls_522-214    C    0.55313021    0.32370016    0.61669015    -0.01330000
opls_521-215    C    0.59950987    0.33907985    0.59472986    0.13150000
opls_145-216    C    0.85573014    0.43737012    0.82952004    0.07220000
opls_145-217    C    0.83223012    0.39028995    0.80695017    -0.16760000
opls_145-218    C    0.80940991    0.38381013    0.76172012    -0.17400000
opls_145-219    C    0.81021019    0.42424008    0.73811990    0.24600000
opls_145-220    C    0.83236986    0.47087996    0.76146984    -0.17400000
opls_145-221    C    0.85531998    0.47742994    0.80617984    -0.16750000
opls_750-222    N    0.41694013    0.63022015    0.30834994    -0.15240000
opls_239-223    N    0.27070000    0.65548014    0.52582016    -0.27950000
opls_750-224    N    0.40080004    0.55997002    0.66056988    -0.15430000
opls_239-225    N    0.31456996    0.71291021    0.44527014    -0.27950000
opls_750-226    N    0.36978006    0.78672006    0.30834994    -0.15240000
opls_239-227    N    0.34451977    0.61521984    0.52582016    -0.27950000
opls_750-228    N    0.44003013    0.84083021    0.66056988    -0.15430000
opls_239-229    N    0.28709006    0.60165992    0.44527014    -0.27950000
opls_750-230    N    0.21328000    0.58306018    0.30834994    -0.15240000
opls_239-231    N    0.38477989    0.72930002    0.52582016    -0.27940000
opls_750-232    N    0.15917003    0.59920015    0.66056988    -0.15430000
opls_239-233    N    0.39833998    0.68542988    0.44527014    -0.27950000
opls_750-234    N    0.58305987    0.36977985    0.69165006    -0.15240000
opls_239-235    N    0.72930000    0.34451986    0.47417984    -0.27940000
opls_750-236    N    0.59919996    0.44002998    0.33943012    -0.15430000
opls_239-237    N    0.68543023    0.28709018    0.55472986    -0.27950000
opls_750-238    N    0.63021994    0.21327994    0.69165006    -0.15240000
opls_239-239    N    0.65548023    0.38478016    0.47417984    -0.27950000
opls_750-240    N    0.55997006    0.15917017    0.33943012    -0.15430000
opls_239-241    N    0.71290994    0.39834008    0.55472986    -0.27950000
opls_750-242    N    0.78672000    0.41693982    0.69165006    -0.15240000
opls_239-243    N    0.61522011    0.27069998    0.47417984    -0.27940000
opls_750-244    N    0.84082997    0.40079985    0.33943012    -0.15430000
opls_239-245    N    0.60166002    0.31457012    0.55472986    -0.27950000
opls_146-246    H    0.54538003    0.96200013    0.06315999    0.11810000
opls_146-247    H    0.38976005    0.90958020    0.02137992    0.11580000
opls_146-248    H    0.51557004    0.91032005    0.13953016    0.11580000
opls_146-249    H    0.36005015    0.85596007    0.09646010    0.10740000
opls_144-250    H    0.16482027    0.50984021    0.33346010    0.06890000
opls_525-251    H    0.18804994    0.69784011    0.51391008    0.11810000
opls_526-252    H    0.15466018    0.64632003    0.59000000    0.07850000
opls_524-253    H    0.27281007    0.60713000    0.58162982    0.07160000
opls_146-254    H    0.45577009    0.62265002    0.81675009    0.11230000
opls_146-255    H    0.43263987    0.63302999    0.73121993    0.09450000
opls_146-256    H    0.40967995    0.48472017    0.69398988    0.11230000
opls_146-257    H    0.43233990    0.47446011    0.77898988    0.10740000
opls_146-258    H    0.06392007    0.46265016    0.94666991    0.10670000
opls_146-259    H    0.03589002    0.58864014    0.94108018    0.09990000
opls_146-260    H    0.09822982    0.48219988    0.86150019    0.09800000
opls_146-261    H    0.06959984    0.60772990    0.85569015    0.09990000
opls_144-262    H    0.36445996    0.78406984    0.65559011    0.07010000
opls_525-263    H    0.22547020    0.74676009    0.45902997    0.09800000
opls_526-264    H    0.27178005    0.79946996    0.38659985    0.11720000
opls_524-265    H    0.37174008    0.73691988    0.38960997    0.07140000
opls_146-266    H    0.35731001    0.52547011    0.17429000    0.11220000
opls_146-267    H    0.34545984    0.55541984    0.25608018    0.09800000
opls_146-268    H    0.50373021    0.67213019    0.25627014    0.09800000
opls_146-269    H    0.51564016    0.64157015    0.17575009    0.11220000
opls_146-270    H    0.03799994    0.58338018    0.06315999    0.11810000
opls_146-271    H    0.09041989    0.48018002    0.02137992    0.11580000
opls_146-272    H    0.08968014    0.60525009    0.13953016    0.11580000
opls_146-273    H    0.14403991    0.50408984    0.09646010    0.10740000
opls_144-274    H    0.49016016    0.65498009    0.33346010    0.06890000
opls_525-275    H    0.30216005    0.49020991    0.51391008    0.11810000
opls_526-276    H    0.35367988    0.50834006    0.59000000    0.07850000
opls_524-277    H    0.39287008    0.66568006    0.58162982    0.07160000
opls_146-278    H    0.37735005    0.83312013    0.81675009    0.11240000
opls_146-279    H    0.36696990    0.79960991    0.73121993    0.09450000
opls_146-280    H    0.51527994    0.92495988    0.69398988    0.11230000
opls_146-281    H    0.52553992    0.95787984    0.77898988    0.10740000
opls_146-282    H    0.53734992    0.60127013    0.94666991    0.10670000
opls_146-283    H    0.41135991    0.44725004    0.94108018    0.09990000
opls_146-284    H    0.51779991    0.61602987    0.86150019    0.09800000
opls_146-285    H    0.39226999    0.46187021    0.85569015    0.09990000
opls_144-286    H    0.21592985    0.58038991    0.65559011    0.07010000
opls_525-287    H    0.25324011    0.47870994    0.45902997    0.09800000
opls_526-288    H    0.20052992    0.47230993    0.38659985    0.11720000
opls_524-289    H    0.26308015    0.63482006    0.38960997    0.07140000
opls_146-290    H    0.47453008    0.83184013    0.17429000    0.11220000
opls_146-291    H    0.44457992    0.79003997    0.25608018    0.07850000
opls_146-292    H    0.32787008    0.83159993    0.25627014    0.09800000
opls_146-293    H    0.35843008    0.87407017    0.17575009    0.11220000
opls_146-294    H    0.41661989    0.45462007    0.06315999    0.11810000
opls_146-295    H    0.51982025    0.61024017    0.02137992    0.11580000
opls_146-296    H    0.39474982    0.48442986    0.13953016    0.11580000
opls_146-297    H    0.49590994    0.63995010    0.09646010    0.10740000
opls_144-298    H    0.34502009    0.83518008    0.33346010    0.06890000
opls_525-299    H    0.50979001    0.81194998    0.51391008    0.11810000
opls_526-300    H    0.49165994    0.84533991    0.59000000    0.07850000
opls_524-301    H    0.33431985    0.72718994    0.58162982    0.07160000
opls_146-302    H    0.16687987    0.54422985    0.81675009    0.11240000
opls_146-303    H    0.20038990    0.56736010    0.73121993    0.09450000
opls_146-304    H    0.07504011    0.59031995    0.69398988    0.11230000
opls_146-305    H    0.04212018    0.56766006    0.77898988    0.10740000
opls_146-306    H    0.39873020    0.93608009    0.94666991    0.10670000
opls_146-307    H    0.55275026    0.96411021    0.94108018    0.09990000
opls_146-308    H    0.38397008    0.90176987    0.86150019    0.09800000
opls_146-309    H    0.53812983    0.93039989    0.85569015    0.09990000
opls_144-310    H    0.41961000    0.63553987    0.65559011    0.07010000
opls_525-311    H    0.52129002    0.77452997    0.45902997    0.09800000
opls_526-312    H    0.52769002    0.72822011    0.38659985    0.11720000
opls_524-313    H    0.36518011    0.62826005    0.38960997    0.07140000
opls_146-314    H    0.16816010    0.64269015    0.17429000    0.11220000
opls_146-315    H    0.20996025    0.65454019    0.25608018    0.09800000
opls_146-316    H    0.16840005    0.49626987    0.25627014    0.09800000
opls_146-317    H    0.12592995    0.48436007    0.17575009    0.11220000
opls_146-318    H    0.45461997    0.03799987    0.93684001    0.11810000
opls_146-319    H    0.61024014    0.09042019    0.97862008    0.11580000
opls_146-320    H    0.48442996    0.08967995    0.86046984    0.11580000
opls_146-321    H    0.63994985    0.14403993    0.90353990    0.10740000
opls_144-322    H    0.83517992    0.49016018    0.66653990    0.06890000
opls_525-323    H    0.81195006    0.30215989    0.48608992    0.11810000
opls_526-324    H    0.84533982    0.35367997    0.41000000    0.07850000
opls_524-325    H    0.72718993    0.39287000    0.41837018    0.07160000
opls_146-326    H    0.54422991    0.37734998    0.18324991    0.11240000
opls_146-327    H    0.56736013    0.36697001    0.26878007    0.09450000
opls_146-328    H    0.59032005    0.51527983    0.30601012    0.11230000
opls_146-329    H    0.56766010    0.52553989    0.22101012    0.10740000
opls_146-330    H    0.93607993    0.53734984    0.05333009    0.10670000
opls_146-331    H    0.96410998    0.41135986    0.05891982    0.09990000
opls_146-332    H    0.90177018    0.51780012    0.13850019    0.09800000
opls_146-333    H    0.93040016    0.39227010    0.14430985    0.09990000
opls_144-334    H    0.63554004    0.21593016    0.34440989    0.07010000
opls_525-335    H    0.77452980    0.25323991    0.54097003    0.09800000
opls_526-336    H    0.72821995    0.20053004    0.61340015    0.11720000
opls_524-337    H    0.62825992    0.26308012    0.61039003    0.07140000
opls_146-338    H    0.64268999    0.47452989    0.82571000    0.11220000
opls_146-339    H    0.65454016    0.44458016    0.74391982    0.09800000
opls_146-340    H    0.49626999    0.32787019    0.74372986    0.09800000
opls_146-341    H    0.48435984    0.35842985    0.82424991    0.11220000
opls_146-342    H    0.96200006    0.41661982    0.93684001    0.11810000
opls_146-343    H    0.90958011    0.51981998    0.97862008    0.11580000
opls_146-344    H    0.91031986    0.39474991    0.86046984    0.11580000
opls_146-345    H    0.85596009    0.49591016    0.90353990    0.10740000
opls_144-346    H    0.50983984    0.34501991    0.66653990    0.06890000
opls_525-347    H    0.69783995    0.50979009    0.48608992    0.11810000
opls_526-348    H    0.64632012    0.49165994    0.41000000    0.07850000
opls_524-349    H    0.60712992    0.33431994    0.41837018    0.07160000
opls_146-350    H    0.62264995    0.16687987    0.18324991    0.11240000
opls_146-351    H    0.63303010    0.20039009    0.26878007    0.09450000
opls_146-352    H    0.48472006    0.07504012    0.30601012    0.11230000
opls_146-353    H    0.47446008    0.04212016    0.22101012    0.10740000
opls_146-354    H    0.46265008    0.39872987    0.05333009    0.10670000
opls_146-355    H    0.58864009    0.55274996    0.05891982    0.09990000
opls_146-356    H    0.48220009    0.38397013    0.13850019    0.09800000
opls_146-357    H    0.60773020    0.53813018    0.14430985    0.09990000
opls_144-358    H    0.78407015    0.41961009    0.34440989    0.07010000
opls_525-359    H    0.74675989    0.52129006    0.54097003    0.09800000
opls_526-360    H    0.79947008    0.52769007    0.61340015    0.11720000
opls_524-361    H    0.73691985    0.36517994    0.61039003    0.07140000
opls_146-362    H    0.52546992    0.16815987    0.82571000    0.11220000
opls_146-363    H    0.55542008    0.20996003    0.74391982    0.07850000
opls_146-364    H    0.67212992    0.16840007    0.74372986    0.09800000
opls_146-365    H    0.64156992    0.12592983    0.82424991    0.11220000
opls_146-366    H    0.58338011    0.54537993    0.93684001    0.11810000
opls_146-367    H    0.48017975    0.38975983    0.97862008    0.11580000
opls_146-368    H    0.60525018    0.51557014    0.86046984    0.11580000
opls_146-369    H    0.50409006    0.36004990    0.90353990    0.10740000
opls_144-370    H    0.65497991    0.16481992    0.66653990    0.06890000
opls_525-371    H    0.49020999    0.18805002    0.48608992    0.11810000
opls_526-372    H    0.50834006    0.15466009    0.41000000    0.07850000
opls_524-373    H    0.66568015    0.27281006    0.41837018    0.07160000
opls_146-374    H    0.83312013    0.45577015    0.18324991    0.11240000
opls_146-375    H    0.79961010    0.43263990    0.26878007    0.09450000
opls_146-376    H    0.92495989    0.40968005    0.30601012    0.11230000
opls_146-377    H    0.95787982    0.43233994    0.22101012    0.10740000
opls_146-378    H    0.60126980    0.06391991    0.05333009    0.10670000
opls_146-379    H    0.44724993    0.03589018    0.05891982    0.09990000
opls_146-380    H    0.61602992    0.09823013    0.13850019    0.09800000
opls_146-381    H    0.46187017    0.06960011    0.14430985    0.09990000
opls_144-382    H    0.58039000    0.36446013    0.34440989    0.07010000
opls_525-383    H    0.47870998    0.22547003    0.54097003    0.09800000
opls_526-384    H    0.47230998    0.27177989    0.61340015    0.11720000
opls_524-385    H    0.63481989    0.37173995    0.61039003    0.07140000
opls_146-386    H    0.83183990    0.35730985    0.82571000    0.11220000
opls_146-387    H    0.79003995    0.34546020    0.74391982    0.07850000
opls_146-388    H    0.83159995    0.50373013    0.74372986    0.09800000
opls_146-389    H    0.87407005    0.51563993    0.82424991    0.11220000
F2_Ru6+2-390    Ru    0.33333006    0.66667014    0.48546010    0.54250000
F2_Ru6+2-391    Ru    0.66666994    0.33332986    0.51453990    0.54250000
