#======================================================================
# Crystal Data Generated By AuToFF
#----------------------------------------------------------------------

data_AuToFF_phase_1

_cell_length_a                         47.0660
_cell_length_b                         47.0660
_cell_length_c                         4.2600
_cell_angle_alpha                      90.00
_cell_angle_beta                       90.00
_cell_angle_gamma                      120.00
_symmetry_space_group_name_H-M_alt     'P 1'
_symmetry_space_group_IT_number        1

loop_
_space_group_symop_operation_xyz
   'x, y, z'

loop_
   _atom_site_label
   _atom_site_type_symbol
   _atom_site_fract_x
   _atom_site_fract_y
   _atom_site_fract_z
   _atom_site_charge
opls_145-0    C    0.21191993    0.14302993    0.30641080    -0.09060000
opls_145-1    C    0.24599995    0.15916007    0.34569014    -0.09320000
opls_700-2    C    0.26159003    0.14200001    0.46991080    0.06320000
opls_145-3    C    0.24193000    0.10843994    0.56292958    -0.09060000
opls_145-4    C    0.20804008    0.09239003    0.52676995    -0.09040000
opls_145-5    C    0.31714997    0.19084012    0.61223944    -0.09060000
opls_145-6    C    0.35126993    0.20549995    0.63079108    -0.09070000
opls_700-7    C    0.36717994    0.18790001    0.53330047    0.06400000
opls_145-8    C    0.34768987    0.15508993    0.41720892    -0.09040000
opls_145-9    C    0.31363998    0.14044997    0.39864085    -0.09040000
opls_700-10    C    0.47261007    0.23353995    0.55481925    0.05450000
opls_916-11    C    0.03510998    0.01571012    0.34946948    0.19510000
opls_145-12    C    0.05208010    0.00060009    0.20239906    -0.11090000
opls_145-13    C    0.08612012    0.01557003    0.22223944    -0.11620000
opls_145-14    C    0.10492006    0.04716005    0.37292019    0.19790000
opls_145-15    C    0.08823001    0.06248008    0.51976995    -0.13040000
opls_145-16    C    0.05409993    0.04676996    0.51360094    -0.10980000
opls_142-17    C    0.15713006    0.09261010    0.34183099    0.02960000
opls_700-18    C    0.19261994    0.10943993    0.39202113    0.05380000
opls_700-19    C    0.29769999    0.15804011    0.49557981    0.06400000
opls_700-20    C    0.40332994    0.20348010    0.54569953    0.06440000
opls_142-21    C    0.50835005    0.24854006    0.56426995    0.10360000
opls_145-22    C    0.56183996    0.29153994    0.48904930    0.20010000
opls_916-23    C    0.68051997    0.31214011    0.49160094    0.19550000
opls_145-24    C    0.41865998    0.18570989    0.65858920    -0.09060000
opls_145-25    C    0.45281007    0.20057998    0.66392958    -0.09060000
opls_145-26    C    0.45734991    0.25137002    0.43953052    -0.09040000
opls_145-27    C    0.42330013    0.23657010    0.43703991    -0.09060000
opls_145-28    C    0.57663986    0.27450991    0.33803052    -0.12390000
opls_145-29    C    0.61071007    0.28849998    0.33333099    -0.13010000
opls_145-30    C    0.61651011    0.33633004    0.64220892    -0.11090000
opls_145-31    C    0.58258992    0.32312995    0.63180986    -0.11620000
opls_145-32    C    0.85696996    0.06888999    0.30641080    -0.09060000
opls_145-33    C    0.84084002    0.08684003    0.34569014    -0.09320000
opls_700-34    C    0.85800007    0.11958999    0.46991080    0.06320000
opls_145-35    C    0.89155995    0.13349002    0.56292958    -0.09060000
opls_145-36    C    0.90760993    0.11564989    0.52676995    -0.09040000
opls_145-37    C    0.80915997    0.12631000    0.61223944    -0.09060000
opls_145-38    C    0.79450001    0.14577009    0.63079108    -0.09070000
opls_700-39    C    0.81210000    0.17928011    0.53330047    0.06400000
opls_145-40    C    0.84491000    0.19259992    0.41720892    -0.09040000
opls_145-41    C    0.85955006    0.17319012    0.39864085    -0.09040000
opls_700-42    C    0.76645999    0.23907008    0.55481925    0.05450000
opls_916-43    C    0.98428993    0.01939998    0.34946948    0.19510000
opls_145-44    C    0.99939993    0.05147993    0.20239906    -0.11120000
opls_145-45    C    0.98442998    0.07054993    0.22223944    -0.11620000
opls_145-46    C    0.95284000    0.05776005    0.37292019    0.19790000
opls_145-47    C    0.93751998    0.02575002    0.51976995    -0.13040000
opls_145-48    C    0.95323004    0.00732992    0.51360094    -0.10980000
opls_142-49    C    0.90739006    0.06452005    0.34183099    0.02960000
opls_700-50    C    0.89056001    0.08318010    0.39202113    0.05380000
opls_700-51    C    0.84195998    0.13965999    0.49557981    0.06400000
opls_700-52    C    0.79652004    0.19985010    0.54569953    0.06440000
opls_142-53    C    0.75146009    0.25981009    0.56426995    0.10360000
opls_145-54    C    0.70846000    0.27029994    0.48904930    0.20010000
opls_916-55    C    0.68785998    0.36838006    0.49160094    0.19550000
opls_145-56    C    0.81428994    0.23294991    0.65858920    -0.09060000
opls_145-57    C    0.79941990    0.25222992    0.66392958    -0.09060000
opls_145-58    C    0.74862999    0.20598008    0.43953052    -0.09040000
opls_145-59    C    0.76343001    0.18673000    0.43703991    -0.09060000
opls_145-60    C    0.72549013    0.30213013    0.33803052    -0.12380000
opls_145-61    C    0.71149995    0.32220994    0.33333099    -0.13010000
opls_145-62    C    0.66367014    0.28018013    0.64220892    -0.11090000
opls_145-63    C    0.67686997    0.25945999    0.63180986    -0.11620000
opls_145-64    C    0.93111011    0.78808008    0.30641080    -0.09060000
opls_145-65    C    0.91316015    0.75400015    0.34569014    -0.09320000
opls_700-66    C    0.88040990    0.73841000    0.46991080    0.06330000
opls_145-67    C    0.86651005    0.75807004    0.56292958    -0.09060000
opls_145-68    C    0.88434999    0.79196008    0.52676995    -0.09040000
opls_145-69    C    0.87368997    0.68285012    0.61223944    -0.09050000
opls_145-70    C    0.85423006    0.64872995    0.63079108    -0.09070000
opls_700-71    C    0.82071997    0.63282013    0.53330047    0.06400000
opls_145-72    C    0.80740001    0.65230990    0.41720892    -0.09040000
opls_145-73    C    0.82680996    0.68635991    0.39864085    -0.09040000
opls_700-74    C    0.76092993    0.52738998    0.55481925    0.05450000
opls_916-75    C    0.98060000    0.96489014    0.34946948    0.19510000
opls_145-76    C    0.94851997    0.94791998    0.20239906    -0.11120000
opls_145-77    C    0.92945011    0.91388003    0.22223944    -0.11620000
opls_145-78    C    0.94224007    0.89508015    0.37292019    0.19790000
opls_145-79    C    0.97425013    0.91177014    0.51976995    -0.13040000
opls_145-80    C    0.99267003    0.94590012    0.51360094    -0.10980000
opls_142-81    C    0.93548000    0.84287009    0.34183099    0.02960000
opls_700-82    C    0.91682006    0.80737997    0.39202113    0.05380000
opls_700-83    C    0.86034003    0.70229991    0.49557981    0.06400000
opls_700-84    C    0.80014992    0.59667005    0.54569953    0.06440000
opls_142-85    C    0.74018998    0.49165010    0.56426995    0.10360000
opls_145-86    C    0.72970004    0.43816012    0.48904930    0.20030000
opls_916-87    C    0.63161995    0.31948008    0.49160094    0.19550000
opls_145-88    C    0.76704995    0.58133995    0.65858920    -0.09060000
opls_145-89    C    0.74777004    0.54719010    0.66392958    -0.09060000
opls_145-90    C    0.79401989    0.54264990    0.43953052    -0.09040000
opls_145-91    C    0.81326985    0.57669991    0.43703991    -0.09060000
opls_145-92    C    0.69787001    0.42335996    0.33803052    -0.12390000
opls_145-93    C    0.67778999    0.38929008    0.33333099    -0.13010000
opls_145-94    C    0.71982008    0.38349008    0.64220892    -0.11080000
opls_145-95    C    0.74054011    0.41741006    0.63180986    -0.11620000
opls_750-96    N    0.13897991    0.06136993    0.38834038    -0.28120000
opls_750-97    N    0.52787991    0.27914996    0.49338967    -0.28870000
opls_750-98    N    0.93862992    0.07760998    0.38834038    -0.28120000
opls_750-99    N    0.72084991    0.24872995    0.49338967    -0.28880000
opls_750-100    N    0.92238996    0.86102008    0.38834038    -0.28120000
opls_750-101    N    0.75126996    0.47212009    0.49338967    -0.28870000
opls_239-102    N    0.00000000    0.00000000    0.33999061    -0.13170000
opls_239-103    N    0.66667013    0.33333006    0.49433099    -0.13640000
opls_146-104    H    0.30519008    0.20459000    0.69941080    0.09650000
opls_146-105    H    0.36589004    0.23065994    0.73253991    0.07810000
opls_146-106    H    0.46455003    0.18679010    0.75800000    0.04240000
opls_146-107    H    0.47292999    0.27674002    0.34906103    0.09660000
opls_146-108    H    0.41164993    0.25029005    0.33884977    0.04200000
opls_146-109    H    0.40351005    0.16030996    0.75130986    0.04980000
opls_146-110    H    0.35965008    0.14140997    0.32815962    0.09650000
opls_146-111    H    0.29904003    0.11538002    0.29473944    0.07810000
opls_146-112    H    0.25374006    0.09527004    0.67287089    0.04990000
opls_146-113    H    0.19264001    0.06657990    0.60252113    0.12050000
opls_146-114    H    0.26092995    0.18500994    0.26789906    0.10740000
opls_146-115    H    0.19999997    0.15624988    0.20011972    0.11560000
opls_146-116    H    0.10212005    0.08606010    0.66020892    0.04240000
opls_146-117    H    0.04192010    0.05880003    0.63904930    0.04940000
opls_146-118    H    0.03835989    0.97648990    0.07627934    0.04600000
opls_146-119    H    0.09888000    0.00353996    0.10743897    0.04600000
opls_144-120    H    0.51792001    0.23205002    0.64327934    0.03670000
opls_144-121    H    0.14648991    0.10805992    0.25819953    0.03680000
opls_146-122    H    0.57145998    0.33659991    0.75049061    0.04110000
opls_146-123    H    0.63159003    0.36038994    0.76522066    0.04990000
opls_146-124    H    0.56134997    0.25076011    0.20510094    0.04370000
opls_146-125    H    0.62127994    0.27503002    0.20516901    0.04560000
opls_146-126    H    0.79541004    0.10059997    0.69941080    0.09650000
opls_146-127    H    0.76934000    0.13522995    0.73253991    0.07810000
opls_146-128    H    0.81321015    0.27776013    0.75800000    0.04240000
opls_146-129    H    0.72326005    0.19618992    0.34906103    0.09660000
opls_146-130    H    0.74971008    0.16136000    0.33884977    0.04200000
opls_146-131    H    0.83968995    0.24320007    0.75130986    0.04980000
opls_146-132    H    0.85859012    0.21824003    0.32815962    0.09650000
opls_146-133    H    0.88461996    0.18366010    0.29473944    0.07810000
opls_146-134    H    0.90473002    0.15846993    0.67287089    0.04990000
opls_146-135    H    0.93342009    0.12606001    0.60252113    0.12050000
opls_146-136    H    0.81498997    0.07592010    0.26789906    0.10740000
opls_146-137    H    0.84375008    0.04375012    0.20011972    0.11560000
opls_146-138    H    0.91393998    0.01605997    0.66020892    0.04240000
opls_146-139    H    0.94120014    0.98312012    0.63904930    0.04940000
opls_146-140    H    0.02350986    0.06186993    0.07627934    0.04610000
opls_146-141    H    0.99645998    0.09533996    0.10743897    0.04600000
opls_144-142    H    0.76795007    0.28586997    0.64327934    0.03670000
opls_144-143    H    0.89193989    0.03842999    0.25819953    0.03680000
opls_146-144    H    0.66339997    0.23486010    0.75049061    0.04110000
opls_146-145    H    0.63960994    0.27120008    0.76522066    0.04990000
opls_146-146    H    0.74924013    0.31059007    0.20510094    0.04370000
opls_146-147    H    0.72497005    0.34624997    0.20516901    0.04560000
opls_146-148    H    0.89940009    0.69481003    0.69941080    0.09650000
opls_146-149    H    0.86476997    0.63411011    0.73253991    0.07810000
opls_146-150    H    0.72223994    0.53545001    0.75800000    0.04240000
opls_146-151    H    0.80380996    0.52707006    0.34906103    0.09660000
opls_146-152    H    0.83863998    0.58834995    0.33884977    0.04200000
opls_146-153    H    0.75679999    0.59648997    0.75130986    0.04980000
opls_146-154    H    0.78176001    0.64035000    0.32815962    0.09650000
opls_146-155    H    0.81634013    0.70096012    0.29473944    0.07810000
opls_146-156    H    0.84152992    0.74626003    0.67287089    0.04990000
opls_146-157    H    0.87394011    0.80736009    0.60252113    0.12060000
opls_146-158    H    0.92407987    0.73906995    0.26789906    0.10750000
opls_146-159    H    0.95624995    0.80000000    0.20011972    0.11560000
opls_146-160    H    0.98393996    0.89787992    0.66020892    0.04240000
opls_146-161    H    0.01688010    0.95808009    0.63904930    0.04940000
opls_146-162    H    0.93812991    0.96163993    0.07627934    0.04600000
opls_146-163    H    0.90466003    0.90112008    0.10743897    0.04600000
opls_144-164    H    0.71412992    0.48208001    0.64327934    0.03670000
opls_144-165    H    0.96156999    0.85351009    0.25819953    0.03680000
opls_146-166    H    0.76514005    0.42853999    0.75049061    0.04110000
opls_146-167    H    0.72880003    0.36840999    0.76522066    0.04990000
opls_146-168    H    0.68941002    0.43865006    0.20510094    0.04370000
opls_146-169    H    0.65375001    0.37872001    0.20516901    0.04560000
