#======================================================================
# Crystal Data Generated By AuToFF
#----------------------------------------------------------------------

data_AuToFF_phase_1

_cell_length_a                         37.2360
_cell_length_b                         37.2994
_cell_length_c                         4.5492
_cell_angle_alpha                      84.00
_cell_angle_beta                       81.00
_cell_angle_gamma                      59.00
_symmetry_space_group_name_H-M_alt     'P 1'
_symmetry_space_group_IT_number        1

loop_
_space_group_symop_operation_xyz
   'x, y, z'

loop_
   _atom_site_label
   _atom_site_type_symbol
   _atom_site_fract_x
   _atom_site_fract_y
   _atom_site_fract_z
   _atom_site_charge
opls_145-0    C    0.95020004    0.06150005    0.20069956    -0.13260000
opls_145-1    C    0.92920008    0.04080001    0.16160031    -0.14370000
opls_700-2    C    0.89570011    0.04429996    0.37699910    0.06820000
opls_145-3    C    0.88420018    0.06929991    0.62390040    -0.12660000
opls_145-4    C    0.90530012    0.08989997    0.66360080    -0.13440000
opls_700-5    C    0.93820021    0.08729987    0.44490013    0.06760000
opls_700-6    C    0.95650007    0.11399978    0.46679981    -0.00240000
opls_700-7    C    0.87429993    0.02110007    0.34359964    -0.00270000
opls_142-8    C    0.98210005    0.11860007    0.22859961    -0.07840000
opls_142-9    C    0.84600003    0.01789991    0.56690022    -0.06780000
opls_423-10    C    0.94160013    0.13889979    0.72089932    0.23740000
opls_423-11    C    0.88569998    0.99700000    0.08819987    0.23400000
opls_700-12    C    0.00349999    0.14279981    0.20539966    0.10930000
opls_145-13    C    0.99590014    0.17230004    0.41319948    -0.13150000
opls_145-14    C    0.03350010    0.13619999    0.95240004    -0.12890000
opls_145-15    C    0.01790000    0.19360000    0.37090077    -0.13150000
opls_145-16    C    0.05570009    0.15719978    0.91220090    -0.13210000
opls_700-17    C    0.04820001    0.18639983    0.12100040    0.06790000
opls_700-18    C    0.82210002    0.99889982    0.49170079    0.11330000
opls_145-19    C    0.79780009    0.01769981    0.25680023    -0.12360000
opls_145-20    C    0.82360016    0.96299989    0.63590114    -0.13260000
opls_145-21    C    0.77820008    0.99979988    0.14389977    -0.13100000
opls_145-22    C    0.80450012    0.94449967    0.51830057    -0.12560000
opls_700-23    C    0.78150008    0.96219989    0.27609938    0.06160000
opls_700-24    C    0.76460009    0.94149986    0.12910035    0.06160000
opls_145-25    C    0.78120001    0.89779996    0.15030091    -0.17320000
opls_145-26    C    0.73340024    0.96509969    0.93949980    -0.16880000
opls_700-27    C    0.77070012    0.87829977    0.96019940    0.06990000
opls_700-28    C    0.72020032    0.94659964    0.75910130    0.06820000
opls_145-29    C    0.74140010    0.90229985    0.75929946    -0.16980000
opls_700-30    C    0.79150012    0.83139988    0.96849973    0.06760000
opls_145-31    C    0.78319997    0.81029991    0.21720002    -0.12930000
opls_145-32    C    0.81980014    0.80759983    0.72590000    -0.13180000
opls_145-33    C    0.80250010    0.76659996    0.22519977    -0.12480000
opls_145-34    C    0.83970017    0.76399991    0.73470128    -0.13260000
opls_700-35    C    0.83180016    0.74249971    0.98510038    0.10810000
opls_700-36    C    0.68340028    0.97349977    0.59760119    0.06830000
opls_145-37    C    0.67330008    0.95949992    0.36640105    -0.13440000
opls_145-38    C    0.65409986    0.01510003    0.69750122    -0.13430000
opls_145-39    C    0.63450014    0.98439996    0.24969998    -0.09560000
opls_145-40    C    0.61610005    0.03979986    0.58010104    -0.11910000
opls_700-41    C    0.60340021    0.02329981    0.38079971    0.10690000
opls_700-42    C    0.07099995    0.20980005    0.07800035    0.06570000
opls_145-43    C    0.11470029    0.18919978    0.97999951    -0.14830000
opls_145-44    C    0.04869997    0.25299988    0.13699990    -0.15750000
opls_700-45    C    0.13640015    0.21109995    0.95060104    0.06960000
opls_700-46    C    0.06940009    0.27580004    0.08939994    0.06780000
opls_145-47    C    0.11329999    0.25439986    0.00040077    -0.18010000
opls_700-48    C    0.18340005    0.18939989    0.88139974    0.06770000
opls_145-49    C    0.20570005    0.19800002    0.05769929    -0.12910000
opls_145-50    C    0.20650011    0.16109973    0.64789965    -0.12620000
opls_145-51    C    0.24950030    0.17899970    0.99859954    -0.14860000
opls_145-52    C    0.25050001    0.14239997    0.58550026    -0.13030000
opls_700-53    C    0.27280010    0.15119996    0.76069992    0.10790000
opls_142-54    C    0.31900004    0.13339987    0.72540127    -0.05790000
opls_700-55    C    0.35039990    0.11070005    0.49730039    0.00450000
opls_423-56    C    0.34260003    0.09389983    0.26880097    0.23320000
opls_700-57    C    0.39500017    0.09919981    0.50590129    0.06770000
opls_145-58    C    0.42850003    0.07090009    0.29949971    -0.13230000
opls_145-59    C    0.40550024    0.11459975    0.72630077    -0.13150000
opls_145-60    C    0.47049995    0.05799989    0.32279985    -0.12880000
opls_145-61    C    0.44739996    0.10170000    0.74980129    -0.13870000
opls_700-62    C    0.48090012    0.07339994    0.54380047    0.06730000
opls_700-63    C    0.04570020    0.32229983    0.12020110    0.06890000
opls_145-64    C    0.01760010    0.34269984    0.37330092    -0.13240000
opls_145-65    C    0.05260028    0.34669975    0.88860019    -0.12890000
opls_145-66    C    0.99680016    0.38629975    0.39359975    -0.13880000
opls_145-67    C    0.03150010    0.39029990    0.90750080    -0.13260000
opls_700-68    C    0.00240006    0.41119989    0.15710059    0.10770000
opls_142-69    C    0.85530010    0.69639971    0.97189957    -0.07100000
opls_700-70    C    0.85970003    0.66679978    0.19479938    0.00010000
opls_423-71    C    0.83419996    0.67809994    0.47180049    0.23470000
opls_700-72    C    0.88860004    0.62100000    0.13819998    0.06670000
opls_145-73    C    0.88840013    0.59089988    0.35159939    -0.13880000
opls_145-74    C    0.91540015    0.60619969    0.86989996    -0.13150000
opls_145-75    C    0.91360017    0.54799980    0.29210111    -0.12920000
opls_145-76    C    0.94050020    0.56339978    0.81030149    -0.13420000
opls_700-77    C    0.94050011    0.53329996    0.02409944    0.06740000
opls_700-78    C    0.97040028    0.48769980    0.96520008    -0.00330000
opls_700-79    C    0.52490001    0.06289994    0.56199974    -0.00510000
opls_423-80    C    0.53020004    0.08009996    0.80109944    0.23320000
opls_423-81    C    0.99540010    0.47789994    0.68609940    0.23840000
opls_142-82    C    0.97660011    0.45719978    0.18470006    -0.05790000
opls_142-83    C    0.55850009    0.04109986    0.34139988    -0.06780000
opls_146-84    H    0.97530010    0.05860000    0.02690036    0.10600000
opls_146-85    H    0.94110009    0.01880003    0.98080104    0.06170000
opls_146-86    H    0.85899997    0.07219991    0.79590060    0.10460000
opls_146-87    H    0.89330022    0.11189978    0.84460045    0.11280000
opls_146-88    H    0.97260009    0.17929996    0.60870020    0.10720000
opls_146-89    H    0.03950009    0.11389977    0.78630001    0.07500000
opls_146-90    H    0.01139997    0.21619997    0.53539995    0.10770000
opls_146-91    H    0.07850012    0.15149997    0.71350072    0.10150000
opls_146-92    H    0.79509999    0.04659986    0.15490082    0.10670000
opls_146-93    H    0.84560028    0.94589967    0.79810037    0.11440000
opls_146-94    H    0.75770003    0.01689985    0.97389895    0.12010000
opls_146-95    H    0.80970007    0.91429991    0.60930135    0.11010000
opls_144-96    H    0.83130014    0.03970001    0.75249978    0.09450000
opls_144-97    H    0.99530004    0.09529997    0.05470022    0.07880000
opls_146-98    H    0.80470013    0.87849998    0.30000067    0.10940000
opls_146-99    H    0.71890014    0.99889976    0.93139986    0.11350000
opls_146-100    H    0.73340005    0.88659978    0.61570026    0.11400000
opls_146-101    H    0.76060019    0.82829974    0.40580088    0.06430000
opls_146-102    H    0.82670014    0.82329987    0.52970016    0.11280000
opls_146-103    H    0.79440022    0.75169988    0.41970081    0.11900000
opls_146-104    H    0.86200021    0.74599977    0.54500055    0.06440000
opls_146-105    H    0.69450013    0.92749997    0.28860108    0.08050000
opls_146-106    H    0.66170029    0.02919971    0.85610023    0.11310000
opls_146-107    H    0.62570001    0.97049982    0.09700115    0.11110000
opls_146-108    H    0.59560006    0.07179994    0.65369963    0.10860000
opls_146-109    H    0.13230004    0.15559985    0.93880068    0.07500000
opls_146-110    H    0.01470005    0.26919982    0.20910008    0.07590000
opls_146-111    H    0.12970007    0.27179994    0.97049911    0.11130000
opls_146-112    H    0.18849993    0.21959996    0.24180042    0.08650000
opls_146-113    H    0.18979998    0.15420003    0.50820125    0.11270000
opls_146-114    H    0.26630027    0.18549964    0.14090070    0.10810000
opls_146-115    H    0.26730010    0.12029997    0.40499934    0.10600000
opls_144-116    H    0.32750002    0.14799985    0.87569995    0.10540000
opls_146-117    H    0.42179994    0.05649990    0.13640098    0.11090000
opls_146-118    H    0.38119993    0.13599997    0.89330029    0.06740000
opls_146-119    H    0.49530010    0.03659982    0.15710059    0.06930000
opls_146-120    H    0.45399997    0.11619988    0.91300021    0.11040000
opls_146-121    H    0.01290015    0.32439993    0.56040112    0.11410000
opls_146-122    H    0.07530018    0.33129983    0.69360042    0.07840000
opls_146-123    H    0.97470006    0.40169988    0.59130024    0.06700000
opls_146-124    H    0.03810014    0.40749985    0.72290093    0.09730000
opls_144-125    H    0.87910027    0.68479966    0.77620069    0.07770000
opls_146-126    H    0.86630003    0.60129995    0.55560083    0.10830000
opls_146-127    H    0.91640019    0.62789977    0.69569999    0.11490000
opls_146-128    H    0.91290007    0.52609992    0.46549954    0.11630000
opls_146-129    H    0.96259994    0.55309997    0.60609967    0.10600000
opls_144-130    H    0.95299999    0.46730002    0.38230036    0.09420000
opls_144-131    H    0.55390005    0.02399987    0.18410114    0.10110000
opls_753-132    N    0.93070028    0.15869974    0.93699946    -0.28830000
opls_753-133    N    0.89110000    0.97669985    0.88580150    -0.28840000
opls_753-134    N    0.33570003    0.08140003    0.07039914    -0.36580000
opls_753-135    N    0.81430036    0.68759967    0.70839985    -0.28840000
opls_753-136    N    0.01510015    0.46959978    0.44829997    -0.28830000
opls_753-137    N    0.53630004    0.09320008    0.00010019    -0.36530000
