#======================================================================
# Crystal Data Generated By AuToFF
#----------------------------------------------------------------------

data_AuToFF_phase_1

_cell_length_a                         36.2164
_cell_length_b                         36.2164
_cell_length_c                         3.7705
_cell_angle_alpha                      90.00
_cell_angle_beta                       90.00
_cell_angle_gamma                      120.00
_symmetry_space_group_name_H-M_alt     'P 1'
_symmetry_space_group_IT_number        1

loop_
_space_group_symop_operation_xyz
   'x, y, z'

loop_
   _atom_site_label
   _atom_site_type_symbol
   _atom_site_fract_x
   _atom_site_fract_y
   _atom_site_fract_z
   _atom_site_charge
opls_700-0    C    0.40409999    0.55920007    0.83953057    0.06230000
opls_145-1    C    0.42930000    0.60330018    0.89521018    -0.11760000
opls_523-2    C    0.41240005    0.62999995    0.84053043    -0.12270000
opls_700-3    C    0.36980008    0.61319997    0.73332980    0.00110000
opls_523-4    C    0.34490009    0.56910017    0.67036998    -0.12680000
opls_145-5    C    0.36200007    0.54240009    0.72164965    -0.11860000
opls_531-6    C    0.35090005    0.64100003    0.70626973    0.35960000
opls_142-7    C    0.46989993    0.89050010    0.91627901    0.01240000
opls_145-8    C    0.47740008    0.95590021    0.16964063    0.18110000
opls_145-9    C    0.45590000    0.47760002    0.18968041    -0.20580000
opls_700-10    C    0.47779993    0.45539996    0.29252884    0.00380000
opls_567-11    C    0.54690007    0.59260013    0.23310967    0.03110000
opls_567-12    C    0.40330008    0.33360009    0.11831057    0.05520000
opls_716-13    C    0.43900001    0.33870015    0.29196923    -0.17740000
opls_716-14    C    0.46700006    0.38079990    0.36304999    -0.17700000
opls_135-15    C    0.63259993    0.70899991    0.01108076    -0.41990000
opls_700-16    C    0.44080007    0.84490019    0.83953057    0.06230000
opls_145-17    C    0.39669995    0.82600005    0.89521018    -0.11770000
opls_523-18    C    0.37000003    0.78240019    0.84053043    -0.12270000
opls_700-19    C    0.38680010    0.75660017    0.73332980    0.00110000
opls_523-20    C    0.43090014    0.77580002    0.67036998    -0.12680000
opls_145-21    C    0.45759994    0.81960011    0.72164965    -0.11860000
opls_531-22    C    0.35900009    0.70989998    0.70626973    0.35960000
opls_142-23    C    0.10949992    0.57940010    0.91627901    0.01240000
opls_145-24    C    0.04410004    0.52149991    0.16964063    0.18110000
opls_145-25    C    0.52240022    0.97830018    0.18968041    -0.20580000
opls_700-26    C    0.54460005    0.02239998    0.29252884    0.00380000
opls_567-27    C    0.40740010    0.95429998    0.23310967    0.03110000
opls_567-28    C    0.66640002    0.06969990    0.11831057    0.05520000
opls_716-29    C    0.66129990    0.10029996    0.29196923    -0.17740000
opls_716-30    C    0.61919998    0.08619986    0.36304999    -0.17700000
opls_135-31    C    0.29100010    0.92360013    0.01108076    -0.42000000
opls_700-32    C    0.15510010    0.59590005    0.83953057    0.06230000
opls_145-33    C    0.17399993    0.57070008    0.89521018    -0.11770000
opls_523-34    C    0.21760008    0.58760018    0.84053043    -0.12270000
opls_700-35    C    0.24339997    0.63020018    0.73332980    0.00110000
opls_523-36    C    0.22420020    0.65510013    0.67036998    -0.12680000
opls_145-37    C    0.18040015    0.63800012    0.72164965    -0.11860000
opls_531-38    C    0.29010014    0.64910000    0.70626973    0.35960000
opls_142-39    C    0.42060004    0.53010013    0.91627901    0.01240000
opls_145-40    C    0.47849988    0.52259988    0.16964063    0.18110000
opls_145-41    C    0.02169994    0.54410011    0.18968041    -0.20580000
opls_700-42    C    0.97760002    0.52220007    0.29252884    0.00380000
opls_567-43    C    0.04569983    0.45309989    0.23310967    0.03110000
opls_567-44    C    0.93029989    0.59670001    0.11831057    0.05520000
opls_716-45    C    0.89969981    0.56099989    0.29196923    -0.17740000
opls_716-46    C    0.91380008    0.53299992    0.36304999    -0.17700000
opls_135-47    C    0.07639997    0.36739996    0.01108076    -0.42000000
opls_700-48    C    0.59590001    0.44079993    0.83953057    0.06230000
opls_145-49    C    0.57070016    0.39670014    0.89521018    -0.11760000
opls_523-50    C    0.58759995    0.37000005    0.84053043    -0.12270000
opls_700-51    C    0.63019992    0.38680003    0.73332980    0.00110000
opls_523-52    C    0.65510006    0.43090014    0.67036998    -0.12680000
opls_145-53    C    0.63799993    0.45759991    0.72164965    -0.11860000
opls_531-54    C    0.64909995    0.35899997    0.70626973    0.35960000
opls_142-55    C    0.53010007    0.10949990    0.91627901    0.01240000
opls_145-56    C    0.52260008    0.04410011    0.16964063    0.18110000
opls_145-57    C    0.54410000    0.52239998    0.18968041    -0.20580000
opls_700-58    C    0.52220007    0.54460004    0.29252884    0.00380000
opls_567-59    C    0.45309993    0.40739987    0.23310967    0.03110000
opls_567-60    C    0.59669992    0.66639991    0.11831057    0.05520000
opls_716-61    C    0.56100015    0.66130017    0.29196923    -0.17740000
opls_716-62    C    0.53299994    0.61920010    0.36304999    -0.17700000
opls_135-63    C    0.36740007    0.29100009    0.01108076    -0.42000000
opls_700-64    C    0.55920009    0.15510013    0.83953057    0.06230000
opls_145-65    C    0.60330005    0.17399995    0.89521018    -0.11770000
opls_523-66    C    0.63000013    0.21760013    0.84053043    -0.12270000
opls_700-67    C    0.61320006    0.24340014    0.73332980    0.00110000
opls_523-68    C    0.56909986    0.22419998    0.67036998    -0.12680000
opls_145-69    C    0.54240006    0.18039989    0.72164965    -0.11860000
opls_531-70    C    0.64099991    0.29010002    0.70626973    0.35960000
opls_142-71    C    0.89050008    0.42059990    0.91627901    0.01240000
opls_145-72    C    0.95589996    0.47850009    0.16964063    0.18110000
opls_145-73    C    0.47759994    0.02170014    0.18968041    -0.20580000
opls_700-74    C    0.45539995    0.97760002    0.29252884    0.00380000
opls_567-75    C    0.59259990    0.04570002    0.23310967    0.03110000
opls_567-76    C    0.33359998    0.93030010    0.11831057    0.05520000
opls_716-77    C    0.33870010    0.89970004    0.29196923    -0.17740000
opls_716-78    C    0.38080002    0.91380014    0.36304999    -0.17690000
opls_135-79    C    0.70899990    0.07639987    0.01108076    -0.42000000
opls_700-80    C    0.84489990    0.40409995    0.83953057    0.06230000
opls_145-81    C    0.82600007    0.42929992    0.89521018    -0.11760000
opls_523-82    C    0.78240008    0.41240014    0.84053043    -0.12270000
opls_700-83    C    0.75660018    0.36980014    0.73332980    0.00110000
opls_523-84    C    0.77579980    0.34489987    0.67036998    -0.12680000
opls_145-85    C    0.81959985    0.36199988    0.72164965    -0.11850000
opls_531-86    C    0.70989986    0.35090000    0.70626973    0.35970000
opls_142-87    C    0.57940012    0.46990019    0.91627901    0.01240000
opls_145-88    C    0.52150012    0.47740012    0.16964063    0.18110000
opls_145-89    C    0.97830006    0.45589989    0.18968041    -0.20580000
opls_700-90    C    0.02239998    0.47779993    0.29252884    0.00380000
opls_567-91    C    0.95430017    0.54690011    0.23310967    0.03110000
opls_567-92    C    0.06970011    0.40329999    0.11831057    0.05520000
opls_716-93    C    0.10030019    0.43900011    0.29196923    -0.17740000
opls_716-94    C    0.08619992    0.46700008    0.36304999    -0.17700000
opls_135-95    C    0.92360003    0.63260004    0.01108076    -0.42000000
opls_520-96    N    0.37619998    0.68409996    0.70713964    -0.47280000
opls_750-97    N    0.45480015    0.91470021    0.05640896    -0.29670000
opls_520-98    N    0.31590019    0.69210013    0.70713964    -0.47270000
opls_750-99    N    0.08530001    0.54010002    0.05640896    -0.29670000
opls_520-100    N    0.30789983    0.62379991    0.70713964    -0.47260000
opls_750-101    N    0.45990000    0.54520009    0.05640896    -0.29660000
opls_520-102    N    0.62380002    0.31590004    0.70713964    -0.47280000
opls_750-103    N    0.54520001    0.08530011    0.05640896    -0.29670000
opls_520-104    N    0.68409981    0.30789987    0.70713964    -0.47270000
opls_750-105    N    0.91469999    0.45989998    0.05640896    -0.29670000
opls_520-106    N    0.69210017    0.37620009    0.70713964    -0.47270000
opls_750-107    N    0.54010000    0.45479991    0.05640896    -0.29670000
opls_633-108    S    0.40369992    0.38010006    0.03543031    0.07850000
opls_633-109    S    0.61989995    0.02360007    0.03543031    0.07850000
opls_633-110    S    0.97640000    0.59630019    0.03543031    0.07850000
opls_633-111    S    0.59630008    0.61989994    0.03543031    0.07850000
opls_633-112    S    0.38010005    0.97639993    0.03543031    0.07850000
opls_633-113    S    0.02360016    0.40370013    0.03543031    0.07850000
opls_146-114    H    0.46179996    0.61720005    0.98738894    0.11860000
opls_526-115    H    0.43240012    0.66380014    0.89327941    0.11680000
opls_526-116    H    0.31210011    0.55519999    0.58487999    0.12160000
opls_146-117    H    0.34200008    0.50850010    0.67567962    0.11790000
opls_144-118    H    0.50350007    0.90360001    0.86175043    0.08980000
opls_146-119    H    0.42179997    0.46030011    0.15988065    0.11860000
opls_570-120    H    0.44420009    0.31290014    0.36934889    0.12310000
opls_570-121    H    0.49639996    0.39149996    0.50790877    0.12310000
opls_140-122    H    0.62029991    0.72559998    0.84219069    0.17300000
opls_140-123    H    0.65690009    0.70530016    0.86097069    0.17360000
opls_140-124    H    0.64790007    0.72880011    0.24869911    0.17410000
opls_146-125    H    0.38280002    0.84460017    0.98738894    0.11860000
opls_526-126    H    0.33620003    0.76860012    0.89327941    0.11680000
opls_526-127    H    0.44480015    0.75690020    0.58487999    0.12160000
opls_146-128    H    0.49150010    0.83349998    0.67567962    0.11790000
opls_144-129    H    0.09640002    0.59990014    0.86175043    0.08980000
opls_146-130    H    0.53970019    0.96150020    0.15988065    0.11860000
opls_570-131    H    0.68710003    0.13130015    0.36934889    0.12310000
opls_570-132    H    0.60850007    0.10490009    0.50790877    0.12310000
opls_140-133    H    0.27439995    0.89470009    0.84219069    0.17290000
opls_140-134    H    0.29470005    0.95160010    0.86097069    0.17360000
opls_140-135    H    0.27120003    0.91910011    0.24869911    0.17410000
opls_146-136    H    0.15540018    0.53820009    0.98738894    0.11860000
opls_526-137    H    0.23140001    0.56760006    0.89327941    0.11690000
opls_526-138    H    0.24310018    0.68790014    0.58487999    0.12160000
opls_146-139    H    0.16650010    0.65799992    0.67567962    0.11790000
opls_144-140    H    0.40010007    0.49650016    0.86175043    0.08980000
opls_146-141    H    0.03850000    0.57820001    0.15988065    0.11860000
opls_570-142    H    0.86870004    0.55580003    0.36934889    0.12310000
opls_570-143    H    0.89509997    0.50359995    0.50790877    0.12310000
opls_140-144    H    0.10529987    0.37969993    0.84219069    0.17290000
opls_140-145    H    0.04840002    0.34310006    0.86097069    0.17360000
opls_140-146    H    0.08090006    0.35210009    0.24869911    0.17410000
opls_146-147    H    0.53820004    0.38279995    0.98738894    0.11860000
opls_526-148    H    0.56760004    0.33620018    0.89327941    0.11680000
opls_526-149    H    0.68789989    0.44480001    0.58487999    0.12160000
opls_146-150    H    0.65799992    0.49149990    0.67567962    0.11790000
opls_144-151    H    0.49649993    0.09639999    0.86175043    0.08980000
opls_146-152    H    0.57820003    0.53969989    0.15988065    0.11860000
opls_570-153    H    0.55580007    0.68710018    0.36934889    0.12310000
opls_570-154    H    0.50360004    0.60850004    0.50790877    0.12310000
opls_140-155    H    0.37970009    0.27440002    0.84219069    0.17290000
opls_140-156    H    0.34310007    0.29470016    0.86097069    0.17360000
opls_140-157    H    0.35209993    0.27119989    0.24869911    0.17420000
opls_146-158    H    0.61720014    0.15540015    0.98738894    0.11860000
opls_526-159    H    0.66379997    0.23139988    0.89327941    0.11680000
opls_526-160    H    0.55520001    0.24310012    0.58487999    0.12160000
opls_146-161    H    0.50849990    0.16650002    0.67567962    0.11790000
opls_144-162    H    0.90360014    0.40010018    0.86175043    0.08980000
opls_146-163    H    0.46029997    0.03850012    0.15988065    0.11860000
opls_570-164    H    0.31290013    0.86870017    0.36934889    0.12310000
opls_570-165    H    0.39150009    0.89510023    0.50790877    0.12320000
opls_140-166    H    0.72560005    0.10529991    0.84219069    0.17290000
opls_140-167    H    0.70529995    0.04839990    0.86097069    0.17360000
opls_140-168    H    0.72879997    0.08089989    0.24869911    0.17410000
opls_146-169    H    0.84459982    0.46179991    0.98738894    0.11860000
opls_526-170    H    0.76859999    0.43239994    0.89327941    0.11680000
opls_526-171    H    0.75689998    0.31210018    0.58487999    0.12160000
opls_146-172    H    0.83350018    0.34200008    0.67567962    0.11790000
opls_144-173    H    0.59990009    0.50350016    0.86175043    0.08990000
opls_146-174    H    0.96150000    0.42179999    0.15988065    0.11860000
opls_570-175    H    0.13129996    0.44419997    0.36934889    0.12310000
opls_570-176    H    0.10490003    0.49640005    0.50790877    0.12310000
opls_140-177    H    0.89470013    0.62030007    0.84219069    0.17290000
opls_140-178    H    0.95159998    0.65689994    0.86097069    0.17360000
opls_140-179    H    0.91909994    0.64789991    0.24869911    0.17410000
