#======================================================================
# Crystal Data Generated By AuToFF
#----------------------------------------------------------------------

data_AuToFF_phase_1

_cell_length_a                         24.5200
_cell_length_b                         3.7900
_cell_length_c                         24.5200
_cell_angle_alpha                      90.00
_cell_angle_beta                       88.92
_cell_angle_gamma                      90.00
_symmetry_space_group_name_H-M_alt     'P 1'
_symmetry_space_group_IT_number        1

loop_
_space_group_symop_operation_xyz
   'x, y, z'

loop_
   _atom_site_label
   _atom_site_type_symbol
   _atom_site_fract_x
   _atom_site_fract_y
   _atom_site_fract_z
   _atom_site_charge
opls_545-0    H    0.04498005    0.00000000    0.00979987    0.26670000
opls_168-1    H    0.01557029    0.00000000    0.63170001    0.35090000
opls_146-2    H    0.02159017    0.00000000    0.69544993    0.11530000
opls_146-3    H    0.02360027    0.00000000    0.78934019    0.24520000
opls_146-4    H    0.84458030    0.00000000    0.70597015    0.11950000
opls_146-5    H    0.84984001    0.00000000    0.79815008    0.11390000
opls_144-6    H    0.87556994    0.00000000    0.57479022    0.02600000
opls_146-7    H    0.09995013    0.00000000    0.51935010    0.07630000
opls_547-8    H    0.07675000    0.00000000    0.79227995    0.11250000
opls_547-9    H    0.15163008    0.00000000    0.83839011    0.23860000
opls_146-10    H    0.59952018    0.00000000    0.97990997    0.10970000
opls_146-11    H    0.66438018    0.00000000    0.99662012    0.11720000
opls_146-12    H    0.75355986    0.00000000    0.97523010    0.10690000
opls_146-13    H    0.70544018    0.00000000    0.16802988    0.10360000
opls_146-14    H    0.79541009    0.00000000    0.14721011    0.11500000
opls_144-15    H    0.54230993    0.00000000    0.13080017    0.04260000
opls_146-16    H    0.53429034    0.00000000    0.90497005    0.10670000
opls_547-17    H    0.79052022    0.00000000    0.93211028    0.12430000
opls_547-18    H    0.84690027    0.00000000    0.85385003    0.10690000
opls_545-19    H    0.95501995    0.00000000    0.99020013    0.26670000
opls_168-20    H    0.98443012    0.00000000    0.36829999    0.35090000
opls_146-21    H    0.97841024    0.00000000    0.30455007    0.11530000
opls_146-22    H    0.97640013    0.00000000    0.21066022    0.24520000
opls_146-23    H    0.15542011    0.00000000    0.29402985    0.12070000
opls_146-24    H    0.15015999    0.00000000    0.20184992    0.11390000
opls_144-25    H    0.12443005    0.00000000    0.42521019    0.02600000
opls_146-26    H    0.90004987    0.00000000    0.48064990    0.07630000
opls_547-27    H    0.92325000    0.00000000    0.20772005    0.11250000
opls_547-28    H    0.84836992    0.00000000    0.16160989    0.23860000
opls_146-29    H    0.40047982    0.00000000    0.02009003    0.10970000
opls_146-30    H    0.33562022    0.00000000    0.00338029    0.11720000
opls_146-31    H    0.24644014    0.00000000    0.02477031    0.10690000
opls_146-32    H    0.29456022    0.00000000    0.83197012    0.10360000
opls_146-33    H    0.20459031    0.00000000    0.85279030    0.11500000
opls_144-34    H    0.45769007    0.00000000    0.86920023    0.04260000
opls_146-35    H    0.46571007    0.00000000    0.09502995    0.10670000
opls_547-36    H    0.20948018    0.00000000    0.06789013    0.12430000
opls_547-37    H    0.15310014    0.00000000    0.14614997    0.10690000
opls_142-38    C    0.07986990    0.00000000    0.41332023    0.07010000
opls_716-39    C    0.16597016    0.00000000    0.06219010    -0.17260000
opls_142-40    C    0.42881994    0.00000000    0.90539019    0.01330000
opls_716-41    C    0.06805993    0.00000000    0.83588028    -0.17770000
opls_543-42    C    0.86817996    0.00000000    0.98461023    0.17490000
opls_543-43    C    0.92212009    0.00000000    0.90816026    0.16900000
opls_716-44    C    0.86617017    0.00000000    0.89278028    -0.17290000
opls_700-45    C    0.96377022    0.00000000    0.86696003    -0.13300000
opls_700-46    C    0.94180004    0.00000000    0.80912022    0.06320000
opls_145-47    C    0.98474009    0.00000000    0.77212016    -0.19240000
opls_145-48    C    0.98255022    0.00000000    0.71687013    -0.16990000
opls_145-49    C    0.93214031    0.00000000    0.69001992    0.21800000
opls_145-50    C    0.88568014    0.00000000    0.72376002    -0.18320000
opls_145-51    C    0.89048031    0.00000000    0.78044995    -0.11550000
opls_700-52    C    0.96148010    0.00000000    0.54379001    -0.05180000
opls_166-53    C    0.01923026    0.00000000    0.55354011    0.26740000
opls_145-54    C    0.05615004    0.00000000    0.51027997    -0.23750000
opls_507-55    C    0.97694983    0.00000000    0.12287992    0.18080000
opls_507-56    C    0.89549989    0.00000000    0.07974012    0.18680000
opls_716-57    C    0.88464017    0.00000000    0.13720996    -0.19900000
opls_700-58    C    0.85193007    0.00000000    0.04084005    -0.13390000
opls_700-59    C    0.79194015    0.00000000    0.05662018    0.06290000
opls_145-60    C    0.74779012    0.00000000    0.01873008    -0.12890000
opls_145-61    C    0.69245021    0.00000000    0.03128982    -0.17800000
opls_145-62    C    0.67388991    0.00000000    0.08564002    0.20730000
opls_145-63    C    0.71617993    0.00000000    0.12452010    -0.18080000
opls_145-64    C    0.77092008    0.00000000    0.11087004    -0.11960000
opls_700-65    C    0.53806994    0.00000000    0.04425991    0.05720000
opls_145-66    C    0.55608007    0.00000000    0.98977999    -0.13080000
opls_145-67    C    0.51886010    0.00000000    0.94714027    -0.14280000
opls_142-68    C    0.92013009    0.00000000    0.58668018    0.07010000
opls_716-69    C    0.83403024    0.00000000    0.93781031    -0.17260000
opls_142-70    C    0.57118005    0.00000000    0.09461022    0.01330000
opls_716-71    C    0.93194006    0.00000000    0.16412013    -0.17770000
opls_543-72    C    0.13182004    0.00000000    0.01539018    0.17500000
opls_543-73    C    0.07787990    0.00000000    0.09184015    0.16900000
opls_716-74    C    0.13382982    0.00000000    0.10722013    -0.17290000
opls_700-75    C    0.03623019    0.00000000    0.13303997    -0.13300000
opls_700-76    C    0.05819995    0.00000000    0.19088019    0.06320000
opls_145-77    C    0.01525991    0.00000000    0.22787984    -0.19240000
opls_145-78    C    0.01745019    0.00000000    0.28312987    -0.16980000
opls_145-79    C    0.06786010    0.00000000    0.30998008    0.21800000
opls_145-80    C    0.11431986    0.00000000    0.27623998    -0.18320000
opls_145-81    C    0.10952010    0.00000000    0.21955005    -0.11550000
opls_700-82    C    0.03851990    0.00000000    0.45620999    -0.05190000
opls_166-83    C    0.98077015    0.00000000    0.44645989    0.26740000
opls_145-84    C    0.94384996    0.00000000    0.48972003    -0.23740000
opls_507-85    C    0.02305017    0.00000000    0.87712008    0.18080000
opls_507-86    C    0.10450010    0.00000000    0.92026029    0.18680000
opls_716-87    C    0.11536023    0.00000000    0.86279004    -0.19900000
opls_700-88    C    0.14807033    0.00000000    0.95916036    -0.13390000
opls_700-89    C    0.20806025    0.00000000    0.94338023    0.06290000
opls_145-90    C    0.25221028    0.00000000    0.98127032    -0.12890000
opls_145-91    C    0.30755020    0.00000000    0.96871018    -0.17800000
opls_145-92    C    0.32611009    0.00000000    0.91435998    0.20730000
opls_145-93    C    0.28382007    0.00000000    0.87548031    -0.18080000
opls_145-94    C    0.22908033    0.00000000    0.88912996    -0.11970000
opls_700-95    C    0.46193006    0.00000000    0.95574009    0.05710000
opls_145-96    C    0.44391993    0.00000000    0.01022001    -0.13080000
opls_145-97    C    0.48113989    0.00000000    0.05286013    -0.14280000
opls_542-98    N    0.92125008    0.00000000    0.96464012    -0.31090000
opls_750-99    N    0.93910026    0.00000000    0.63499994    -0.17690000
opls_542-100    N    0.95204010    0.00000000    0.07262996    -0.33390000
opls_750-101    N    0.62187985    0.00000000    0.10765984    -0.20370000
opls_542-102    N    0.07874992    0.00000000    0.03535988    -0.31090000
opls_750-103    N    0.06090015    0.00000000    0.36500006    -0.17690000
opls_542-104    N    0.04796030    0.00000000    0.92737004    -0.33390000
opls_750-105    N    0.37812015    0.00000000    0.89234016    -0.20370000
opls_167-106    O    0.04367009    0.00000000    0.60307991    -0.42360000
opls_167-107    O    0.95632991    0.00000000    0.39692009    -0.42360000
