#======================================================================
# Crystal Data Generated By AuToFF
#----------------------------------------------------------------------

data_AuToFF_phase_1

_cell_length_a                         27.7611
_cell_length_b                         27.7627
_cell_length_c                         3.4145
_cell_angle_alpha                      89.95
_cell_angle_beta                       89.91
_cell_angle_gamma                      59.90
_symmetry_space_group_name_H-M_alt     'P 1'
_symmetry_space_group_IT_number        1

loop_
_space_group_symop_operation_xyz
   'x, y, z'

loop_
   _atom_site_label
   _atom_site_type_symbol
   _atom_site_fract_x
   _atom_site_fract_y
   _atom_site_fract_z
   _atom_site_charge
opls_558-0    C    0.11612972    0.92434000    0.99781813    0.31220000
opls_700-1    C    0.30678974    0.83770995    0.82674769    0.06470000
opls_145-2    C    0.25844981    0.89057008    0.79598770    -0.20750000
opls_624-3    C    0.20789997    0.89393005    0.86401816    0.12770000
opls_624-4    C    0.20286977    0.84681981    0.94063845    0.12940000
opls_145-5    C    0.24974965    0.79403003    0.95428906    -0.18810000
opls_145-6    C    0.30123969    0.79080001    0.90195929    -0.14070000
opls_700-7    C    0.36151011    0.83310980    0.82563772    0.06010000
opls_145-8    C    0.36729996    0.87959008    0.91095914    -0.14380000
opls_145-9    C    0.41891991    0.87593997    0.96546786    -0.18530000
opls_624-10    C    0.46567984    0.82306979    0.94553815    0.13060000
opls_624-11    C    0.46029983    0.77647008    0.85732025    0.12770000
opls_145-12    C    0.40966999    0.78036003    0.78388930    -0.20690000
opls_700-13    C    0.72581982    0.62716997    0.09430078    0.04900000
opls_700-14    C    0.64866991    0.72568023    0.09338117    0.04900000
opls_700-15    C    0.62743991    0.64861007    0.09155953    0.04900000
opls_700-16    C    0.60917995    0.70685000    0.06853126    -0.07810000
opls_558-17    C    0.55222964    0.74495009    0.99448821    0.31070000
opls_700-18    C    0.68587988    0.60897011    0.06846976    -0.07820000
opls_558-19    C    0.70472012    0.55206972    0.99482794    0.31220000
opls_700-20    C    0.80673002    0.36121007    0.82600966    0.06470000
opls_145-21    C    0.75397008    0.36764992    0.90401816    -0.14070000
opls_145-22    C    0.70602994    0.41953010    0.95716796    -0.18540000
opls_624-23    C    0.71260006    0.46594984    0.94239859    0.12780000
opls_624-24    C    0.76503977    0.46001008    0.86173964    0.12760000
opls_145-25    C    0.81179987    0.40912994    0.79186997    -0.19040000
opls_700-26    C    0.85668995    0.30620987    0.82429053    0.06240000
opls_145-27    C    0.90942006    0.30015998    0.89549861    -0.14290000
opls_145-28    C    0.95760995    0.24848974    0.94547957    -0.18540000
opls_624-29    C    0.95132979    0.20189989    0.93440035    0.12940000
opls_624-30    C    0.89891981    0.20737985    0.86090789    0.12720000
opls_145-31    C    0.85179978    0.25814995    0.79383804    -0.21840000
opls_700-32    C    0.03914989    0.01998019    0.09546932    0.04900000
opls_700-33    C    0.02065968    0.94108010    0.09761898    0.04900000
opls_700-34    C    0.94166005    0.03863987    0.09561869    0.04900000
opls_700-35    C    0.96207980    0.97993014    0.07201933    -0.08710000
opls_700-36    C    0.98042992    0.05834018    0.07042027    -0.08230000
opls_558-37    C    0.96021018    0.11544971    0.99527896    0.31140000
opls_700-38    C    0.70692971    0.68560020    0.07011861    -0.07820000
opls_558-39    C    0.74507984    0.70430989    0.99720018    0.28420000
opls_700-40    C    0.05897987    0.96139994    0.07182896    -0.07820000
opls_700-41    C    0.83335990    0.80658991    0.82746815    0.06090000
opls_145-42    C    0.87980989    0.75407994    0.91165910    -0.14380000
opls_145-43    C    0.87613988    0.70614000    0.96707864    -0.18810000
opls_624-44    C    0.82324971    0.71245011    0.94904964    0.13060000
opls_624-45    C    0.77664991    0.76464997    0.86224923    0.12770000
opls_145-46    C    0.78052987    0.81140998    0.78924001    -0.20010000
opls_700-47    C    0.83817976    0.85656997    0.82376922    0.06550000
opls_145-48    C    0.89121992    0.85159989    0.79604920    -0.21340000
opls_624-49    C    0.89469994    0.89872012    0.86224045    0.12740000
opls_624-50    C    0.84755990    0.95126980    0.93235027    0.12790000
opls_145-51    C    0.79460961    0.95766007    0.94046859    -0.17960000
opls_145-52    C    0.79122982    0.90945987    0.89096793    -0.14040000
opls_558-53    C    0.92520982    0.95986997    0.99643872    0.30140000
opls_148-54    C    0.78490976    0.58826022    0.21660858    -0.46900000
opls_148-55    C    0.62825994    0.78489023    0.21399034    -0.46890000
opls_148-56    C    0.58843983    0.62845997    0.21199883    -0.46220000
opls_148-57    C    0.07701983    0.04133994    0.21732025    -0.46170000
opls_148-58    C    0.04188972    0.88188022    0.22171914    -0.46830000
opls_148-59    C    0.88238998    0.07680987    0.21954020    -0.46230000
opls_557-60    N    0.15520987    0.93931992    0.89624835    -0.36550000
opls_557-61    N    0.14693963    0.86634022    0.00624103    -0.34500000
opls_557-62    N    0.51286991    0.73081984    0.88553815    -0.35540000
opls_557-63    N    0.52173993    0.80294008    0.01309123    -0.36790000
opls_557-64    N    0.75850991    0.51233005    0.89153024    -0.35540000
opls_557-65    N    0.67675991    0.52209018    0.00796896    -0.34370000
opls_557-66    N    0.98758986    0.14597006    0.00105140    -0.35040000
opls_557-67    N    0.90606001    0.15477986    0.89515010    -0.36350000
opls_557-68    N    0.73094994    0.75791997    0.88957973    -0.35480000
opls_557-69    N    0.80312968    0.67650022    0.01493923    -0.36910000
opls_557-70    N    0.94017958    0.90567013    0.89855909    -0.35670000
opls_557-71    N    0.86722975    0.98742978    0.99880802    -0.35290000
opls_146-72    H    0.26078994    0.92784011    0.73370040    0.09550000
opls_146-73    H    0.24710973    0.75712988    0.02689999    0.09570000
opls_146-74    H    0.33861979    0.75039003    0.94123005    0.09660000
opls_146-75    H    0.33005995    0.91989980    0.95768927    0.09660000
opls_146-76    H    0.42176993    0.91246977    0.04521013    0.09530000
opls_146-77    H    0.40717003    0.74356989    0.70940987    0.09830000
opls_562-78    H    0.14562971    0.97909011    0.85138966    0.25440000
opls_562-79    H    0.13179978    0.84295989    0.11896032    0.25430000
opls_562-80    H    0.52237988    0.69135012    0.82900864    0.25430000
opls_562-81    H    0.78877976    0.52144011    0.83616928    0.25430000
opls_562-82    H    0.63871993    0.53752993    0.13020062    0.25430000
opls_146-83    H    0.75033986    0.33068973    0.94471811    0.09710000
opls_146-84    H    0.66623984    0.42277003    0.03086836    0.09570000
opls_146-85    H    0.85155994    0.40628990    0.72709914    0.09660000
opls_146-86    H    0.91288008    0.33724991    0.93327866    0.09710000
opls_146-87    H    0.99742006    0.24544967    0.01379997    0.09530000
opls_146-88    H    0.81205022    0.26081972    0.73238834    0.09660000
opls_562-89    H    0.02615989    0.13069014    0.11302973    0.25430000
opls_562-90    H    0.87549979    0.14558998    0.85651779    0.25970000
opls_146-91    H    0.92020983    0.75075983    0.95533753    0.09660000
opls_146-92    H    0.91276011    0.66656974    0.04430810    0.09540000
opls_146-93    H    0.74363972    0.85089019    0.71741983    0.09790000
opls_146-94    H    0.92846965    0.81173009    0.73843901    0.09790000
opls_146-95    H    0.75765972    0.99754008    0.00674769    0.09530000
opls_146-96    H    0.75055982    0.91299005    0.92645775    0.09500000
opls_562-97    H    0.84373968    0.02628005    0.10613853    0.25430000
opls_562-98    H    0.97997984    0.87508979    0.85851808    0.25980000
opls_562-99    H    0.53683003    0.82551004    0.13942891    0.25430000
opls_562-100    H    0.69161000    0.78771001    0.82627910    0.25440000
opls_562-101    H    0.82562995    0.63889014    0.14378093    0.25970000
opls_702-102    H    0.05882993    0.84967032    0.98480890    0.08920000
opls_702-103    H    0.00910970    0.87759018    0.36605945    0.12640000
opls_702-104    H    0.07462978    0.86950005    0.44400937    0.10990000
opls_702-105    H    0.86988013    0.05636974    0.44048030    0.10990000
opls_702-106    H    0.85008978    0.09263019    0.98316884    0.08870000
opls_702-107    H    0.87826012    0.11364995    0.36600966    0.12640000
opls_702-108    H    0.09217974    0.05836018    0.98053888    0.08930000
opls_702-109    H    0.11435016    0.00861990    0.36053888    0.10900000
opls_702-110    H    0.05665992    0.07401979    0.44067067    0.11150000
opls_702-111    H    0.81723974    0.57339017    0.98089032    0.09000000
opls_702-112    H    0.78899997    0.55077987    0.35278957    0.11470000
opls_702-113    H    0.79728999    0.60781013    0.44525992    0.11190000
opls_702-114    H    0.59626982    0.79740018    0.44319813    0.11160000
opls_702-115    H    0.61075997    0.81702997    0.97773027    0.09150000
opls_702-116    H    0.66157986    0.78919001    0.34841997    0.11460000
opls_702-117    H    0.60786987    0.59625007    0.43957827    0.11160000
opls_702-118    H    0.57355982    0.61130006    0.97522038    0.09000000
opls_702-119    H    0.55082992    0.66182008    0.34815053    0.11150000
