#======================================================================
# Crystal Data Generated By AuToFF
#----------------------------------------------------------------------

data_AuToFF_phase_1

_cell_length_a                         15.4059
_cell_length_b                         15.3998
_cell_length_c                         7.0076
_cell_angle_alpha                      90.00
_cell_angle_beta                       90.00
_cell_angle_gamma                      59.79
_symmetry_space_group_name_H-M_alt     'P 1'
_symmetry_space_group_IT_number        1

loop_
_space_group_symop_operation_xyz
   'x, y, z'

loop_
   _atom_site_label
   _atom_site_type_symbol
   _atom_site_fract_x
   _atom_site_fract_y
   _atom_site_fract_z
   _atom_site_charge
opls_700-0    C    0.34047051    0.13418960    0.99988013    -0.08620000
opls_280-1    C    0.41940036    0.16170947    0.99991010    0.40730000
opls_700-2    C    0.38759043    0.26954984    0.99981021    -0.08670000
opls_280-3    C    0.28068034    0.34864936    0.99962041    0.40730000
opls_700-4    C    0.20460053    0.31723963    0.99956048    -0.08620000
opls_280-5    C    0.23265041    0.21048950    0.99972030    0.42330000
opls_142-6    C    0.46290038    0.29457965    0.99992009    0.02750000
opls_142-7    C    0.36544015    0.03369993    0.00000999    0.02750000
opls_142-8    C    0.10388057    0.39279942    0.99941064    0.02750000
opls_141-9    C    0.49062977    0.51523000    0.00012986    0.54880000
opls_700-10    C    0.57272025    0.54089998    0.00015983    -0.02440000
opls_145-11    C    0.54148005    0.64399993    0.00026971    -0.04950000
opls_145-12    C    0.67607009    0.47026996    0.00006992    -0.04950000
opls_700-13    C    0.61185020    0.67656003    0.00030966    -0.02520000
opls_700-14    C    0.74790959    0.50120032    0.00007991    -0.02520000
opls_145-15    C    0.71493972    0.60443026    0.00022975    -0.05360000
opls_141-16    C    0.85615011    0.41935978    0.00001998    0.55140000
opls_141-17    C    0.58602991    0.78444999    0.00036960    0.54960000
opls_700-18    C    0.34057033    0.13404984    0.49988013    -0.08620000
opls_280-19    C    0.41942006    0.16166965    0.49991010    0.29250000
opls_700-20    C    0.38749988    0.26954984    0.49981021    -0.08530000
opls_280-21    C    0.28055037    0.34855995    0.49962041    0.29250000
opls_700-22    C    0.20456023    0.31702999    0.49956048    -0.08620000
opls_280-23    C    0.23272028    0.21025958    0.49972030    0.42290000
opls_142-24    C    0.46271043    0.29469987    0.49992009    0.02750000
opls_142-25    C    0.36564040    0.03353989    0.50000999    0.02750000
opls_142-26    C    0.10381022    0.39251014    0.49941064    0.02750000
opls_141-27    C    0.49042053    0.51537952    0.50012986    0.54870000
opls_700-28    C    0.57261050    0.54090975    0.50015983    -0.02440000
opls_145-29    C    0.54150031    0.64397964    0.50026971    -0.04950000
opls_145-30    C    0.67594013    0.47018956    0.50006992    -0.04960000
opls_700-31    C    0.61197051    0.67641952    0.50030966    -0.02520000
opls_700-32    C    0.74786995    0.50099971    0.50007991    -0.02310000
opls_145-33    C    0.71502025    0.60421011    0.50022975    -0.05360000
opls_141-34    C    0.85608014    0.41906975    0.50001998    0.55140000
opls_141-35    C    0.58623989    0.78428995    0.50036960    0.54960000
opls_144-36    H    0.54522042    0.23277980    0.00005993    0.03220000
opls_144-37    H    0.30363987    0.01356984    0.99998002    0.03220000
opls_144-38    H    0.08308021    0.47507951    0.99932930    0.03220000
opls_146-39    H    0.45798980    0.70245016    0.00032964    0.05440000
opls_146-40    H    0.70286043    0.38647960    0.99999001    0.05440000
opls_146-41    H    0.77311041    0.62946984    0.00028969    0.05450000
opls_144-42    H    0.54506024    0.23296989    0.50005993    0.03220000
opls_144-43    H    0.30390029    0.01333015    0.49998002    0.03220000
opls_144-44    H    0.08292048    0.47481954    0.49932930    0.03220000
opls_146-45    H    0.45804011    0.70250952    0.50032964    0.05450000
opls_146-46    H    0.70264043    0.38641949    0.49999001    0.05450000
opls_146-47    H    0.77326031    0.62915952    0.50028969    0.05450000
opls_750-48    N    0.44235038    0.39041005    0.99987014    -0.13270000
opls_750-49    N    0.46121033    0.95798986    0.00016982    -0.12710000
opls_750-50    N    0.51761024    0.41459982    0.00000000    -0.19190000
opls_750-51    N    0.48542008    0.85838005    0.00025972    -0.19210000
opls_750-52    N    0.02895025    0.37207950    0.99935070    -0.12710000
opls_750-53    N    0.92902051    0.44710957    0.99930932    -0.19190000
opls_750-54    N    0.44208003    0.39057009    0.49987014    -0.13270000
opls_750-55    N    0.46142041    0.95786964    0.50016982    -0.12710000
opls_750-56    N    0.51732005    0.41476963    0.49999001    -0.19180000
opls_750-57    N    0.48564026    0.85825006    0.50025972    -0.19210000
opls_750-58    N    0.02893035    0.37171959    0.49935070    -0.12720000
opls_750-59    N    0.92900033    0.44673989    0.49930932    -0.19210000
opls_272-60    O    0.40135004    0.58100013    0.00022975    -0.32020000
opls_272-61    O    0.88097021    0.32985973    0.00053941    -0.31790000
opls_272-62    O    0.65157028    0.80791018    0.00046949    -0.31490000
opls_281-63    O    0.25458061    0.43963940    0.99953051    -0.19920000
opls_281-64    O    0.51038982    0.09636011    0.00002997    -0.19920000
opls_281-65    O    0.16785014    0.18447989    0.99973029    -0.27220000
opls_272-66    O    0.40116983    0.58123005    0.50023974    -0.32020000
opls_272-67    O    0.88081020    0.32958998    0.50054940    -0.31800000
opls_272-68    O    0.65182033    0.80767951    0.50046949    -0.31920000
opls_281-69    O    0.25436023    0.43958004    0.49953051    -0.28250000
opls_281-70    O    0.51043031    0.09637965    0.50002997    -0.19930000
opls_281-71    O    0.16799039    0.18415004    0.49973029    -0.27210000
