#======================================================================
# Crystal Data Generated By AuToFF
#----------------------------------------------------------------------

data_AuToFF_phase_1

_cell_length_a                         19.6639
_cell_length_b                         19.6639
_cell_length_c                         4.3151
_cell_angle_alpha                      90.00
_cell_angle_beta                       90.00
_cell_angle_gamma                      120.00
_symmetry_space_group_name_H-M_alt     'P 1'
_symmetry_space_group_IT_number        1

loop_
_space_group_symop_operation_xyz
   'x, y, z'

loop_
   _atom_site_label
   _atom_site_type_symbol
   _atom_site_fract_x
   _atom_site_fract_y
   _atom_site_fract_z
   _atom_site_charge
opls_531-0    C    0.25258027    0.62629012    0.50000927    0.29070000
opls_531-1    C    0.37370985    0.62629012    0.50000927    0.29070000
opls_531-2    C    0.37370979    0.74742975    0.50000927    0.29070000
opls_700-3    C    0.16944978    0.58472974    0.50000927    0.00530000
opls_700-4    C    0.41526979    0.58472974    0.50000927    0.00530000
opls_700-5    C    0.41526987    0.83054992    0.50000927    0.00600000
opls_523-6    C    0.12625987    0.50351979    0.57131005    -0.19810000
opls_523-7    C    0.49647967    0.62273980    0.57131005    -0.19810000
opls_523-8    C    0.37725966    0.87373983    0.57131005    -0.19810000
opls_523-9    C    0.49648016    0.87373983    0.42869922    -0.19810000
opls_523-10    C    0.37725992    0.50351979    0.42869922    -0.19810000
opls_523-11    C    0.12626013    0.62273980    0.42869922    -0.19810000
opls_145-12    C    0.04363004    0.58146011    0.42842113    -0.19790000
opls_145-13    C    0.41854020    0.46218020    0.42842113    -0.19790000
opls_145-14    C    0.53782001    0.95636968    0.42842113    -0.19790000
opls_145-15    C    0.41854001    0.95636968    0.57159973    -0.19790000
opls_145-16    C    0.53783007    0.58146011    0.57159973    -0.19790000
opls_145-17    C    0.04363034    0.46218020    0.57159973    -0.19790000
opls_145-18    C    0.55469011    0.20724992    0.33439086    -0.23070000
opls_145-19    C    0.51298014    0.12461009    0.33262033    -0.22250000
opls_145-20    C    0.79274984    0.34744008    0.33439086    -0.23070000
opls_145-21    C    0.87539005    0.38836979    0.33262033    -0.22250000
opls_145-22    C    0.65256006    0.44531000    0.33439086    -0.23070000
opls_145-23    C    0.61162982    0.48702013    0.33262033    -0.22250000
opls_145-24    C    0.79274995    0.44531000    0.66562073    -0.23070000
opls_145-25    C    0.87539031    0.48702013    0.66738894    -0.22250000
opls_145-26    C    0.65255981    0.20724992    0.66562073    -0.23080000
opls_145-27    C    0.61162995    0.12461009    0.66738894    -0.22250000
opls_145-28    C    0.55469024    0.34744008    0.66562073    -0.23080000
opls_145-29    C    0.51297974    0.38836979    0.66738894    -0.22260000
opls_916-30    C    0.62588004    0.25174991    0.50000927    0.14270000
opls_700-31    C    0.54094997    0.08189993    0.50000927    0.07880000
opls_916-32    C    0.74825009    0.37412974    0.50000927    0.14270000
opls_700-33    C    0.91809987    0.45904974    0.50000927    0.07880000
opls_916-34    C    0.62587965    0.37412974    0.50000927    0.14270000
opls_700-35    C    0.54094987    0.45904974    0.50000927    0.07880000
opls_700-36    C    0.00103970    0.50051969    0.50000927    0.07700000
opls_700-37    C    0.49947999    0.50051969    0.50000927    0.07700000
opls_700-38    C    0.49948002    0.99896004    0.50000927    0.07700000
opls_520-39    N    0.29408992    0.58816966    0.50000927    -0.53140000
opls_520-40    N    0.41182983    0.70590988    0.50000927    -0.53160000
opls_520-41    N    0.29408971    0.70590988    0.50000927    -0.51260000
opls_239-42    N    0.66666999    0.33332981    0.50000927    -0.02190000
opls_146-43    H    0.53211008    0.23530016    0.21196960    0.20490000
opls_146-44    H    0.46239003    0.09584989    0.20529999    0.20440000
opls_146-45    H    0.76469989    0.29681011    0.21196960    0.20500000
opls_146-46    H    0.90414976    0.36654993    0.20529999    0.20440000
opls_146-47    H    0.70319003    0.46788973    0.21196960    0.20500000
opls_146-48    H    0.63346011    0.53761016    0.20529999    0.20430000
opls_146-49    H    0.76469970    0.46788973    0.78803967    0.20500000
opls_146-50    H    0.90415005    0.53761016    0.79472086    0.20440000
opls_146-51    H    0.70319008    0.23530016    0.78803967    0.20500000
opls_146-52    H    0.63345986    0.09584989    0.79472086    0.20440000
opls_146-53    H    0.53211022    0.29681011    0.78803967    0.20500000
opls_146-54    H    0.46238999    0.36654993    0.79472086    0.20440000
opls_526-55    H    0.15472997    0.47351997    0.62602025    0.20440000
opls_526-56    H    0.52647999    0.68120972    0.62602025    0.20440000
opls_526-57    H    0.31878974    0.84526972    0.62602025    0.20440000
opls_526-58    H    0.52647998    0.84526972    0.37398902    0.20440000
opls_526-59    H    0.31879000    0.47351997    0.37398902    0.20430000
opls_526-60    H    0.15472973    0.68120972    0.37398902    0.20440000
opls_146-61    H    0.01468996    0.40375021    0.62704920    0.20440000
opls_146-62    H    0.01468967    0.61094963    0.37296007    0.20440000
opls_146-63    H    0.59625996    0.61094963    0.62704920    0.20440000
opls_146-64    H    0.38905008    0.40375021    0.37296007    0.20430000
opls_146-65    H    0.38904970    0.98530956    0.62704920    0.20440000
opls_146-66    H    0.59625986    0.98530956    0.37296007    0.20440000
