#======================================================================
# Crystal Data Generated By AuToFF
#----------------------------------------------------------------------

data_AuToFF_phase_1

_cell_length_a                         16.9800
_cell_length_b                         13.4700
_cell_length_c                         16.4000
_cell_angle_alpha                      90.00
_cell_angle_beta                       108.87
_cell_angle_gamma                      90.00
_symmetry_space_group_name_H-M_alt     'P 1'
_symmetry_space_group_IT_number        1

loop_
_space_group_symop_operation_xyz
   'x, y, z'

loop_
   _atom_site_label
   _atom_site_type_symbol
   _atom_site_fract_x
   _atom_site_fract_y
   _atom_site_fract_z
   _atom_site_charge
opls_186-0    O    0.45881978    0.43189013    0.17821991    -0.23320000
opls_186-1    O    0.54118022    0.43187973    0.32178009    -0.23320000
opls_171-2    O    0.52754025    0.68838010    0.18165000    -0.42530000
opls_171-3    O    0.47246984    0.68836971    0.31835967    -0.42540000
opls_236-4    O    0.14086003    0.67493987    0.82899015    -0.40210000
opls_236-5    O    0.85915026    0.67491982    0.67102016    -0.39450000
opls_236-6    O    0.85040026    0.41000965    0.13355023    -0.40980000
opls_236-7    O    0.14959974    0.41002004    0.36644977    -0.40980000
opls_186-8    O    0.54118022    0.43189013    0.82178009    -0.23310000
opls_186-9    O    0.45881978    0.43187973    0.67821991    -0.23320000
opls_171-10    O    0.47245975    0.68838010    0.81835000    -0.42530000
opls_171-11    O    0.52752996    0.68836971    0.68163969    -0.42540000
opls_236-12    O    0.85913997    0.67493987    0.17100985    -0.40210000
opls_236-13    O    0.14084974    0.67491982    0.32897984    -0.39440000
opls_236-14    O    0.14959974    0.41000965    0.86644977    -0.40980000
opls_236-15    O    0.85040026    0.41002004    0.63355023    -0.40980000
opls_175-16    C    0.49726980    0.59744989    0.14057021    0.20140000
opls_174-17    C    0.46914011    0.53134967    0.20465017    0.05760000
opls_197-18    C    0.49999990    0.37248998    0.24999968    0.49680000
opls_135-19    C    0.43442980    0.30523014    0.26751997    -0.51560000
opls_135-20    C    0.56555984    0.30523014    0.23246006    -0.51560000
opls_174-21    C    0.53085989    0.53134001    0.29534983    0.05760000
opls_175-22    C    0.50274021    0.59744989    0.35942979    0.20140000
opls_916-23    C    0.14149994    0.86685004    0.74489998    0.17010000
opls_234-24    C    0.19511011    0.73534001    0.86222966    0.44410000
opls_700-25    C    0.26979980    0.70266964    0.93634018    -0.03600000
opls_145-26    C    0.27006993    0.61246028    0.97940984    -0.13770000
opls_145-27    C    0.34367012    0.57172012    0.03665993    -0.13500000
opls_700-28    C    0.41900017    0.62455976    0.05837970    0.01060000
opls_145-29    C    0.41656975    0.71878025    0.02105992    -0.12250000
opls_145-30    C    0.34508008    0.75540980    0.95896016    -0.12070000
opls_145-31    C    0.07189998    0.81876021    0.68730000    -0.19150000
opls_145-32    C    0.02951973    0.86148998    0.60661994    -0.13350000
opls_700-33    C    0.05451014    0.95172977    0.57935004    0.04400000
opls_145-34    C    0.12346981    0.99870007    0.63855971    -0.13400000
opls_145-35    C    0.16643973    0.95704974    0.71865016    -0.17490000
opls_916-36    C    0.85851008    0.86683964    0.75510002    0.17010000
opls_234-37    C    0.80489970    0.73533036    0.63776969    0.42890000
opls_700-38    C    0.73021021    0.70265033    0.56365982    -0.03600000
opls_145-39    C    0.72994009    0.61244989    0.52059016    -0.13770000
opls_145-40    C    0.65632988    0.57170007    0.46334007    -0.13500000
opls_700-41    C    0.58100991    0.62455011    0.44162997    0.01060000
opls_145-42    C    0.58343975    0.71876021    0.47894975    -0.12250000
opls_145-43    C    0.65493021    0.75540015    0.54105015    -0.11970000
opls_145-44    C    0.83356969    0.95704009    0.78134984    -0.17330000
opls_145-45    C    0.87652992    0.99868968    0.86142998    -0.13400000
opls_700-46    C    0.94549987    0.95172012    0.92064996    0.04400000
opls_145-47    C    0.97048977    0.86148033    0.89338973    -0.13350000
opls_145-48    C    0.92810009    0.81874981    0.81270967    -0.19150000
opls_916-49    C    0.84405991    0.19834967    0.10679005    0.17560000
opls_234-50    C    0.78845016    0.36468003    0.13390980    0.47560000
opls_700-51    C    0.71473010    0.42274981    0.13579013    -0.03470000
opls_145-52    C    0.72447005    0.51144024    0.18259983    -0.13000000
opls_145-53    C    0.65588003    0.57285004    0.17573000    -0.13490000
opls_700-54    C    0.57431024    0.54404974    0.12744014    0.00550000
opls_145-55    C    0.56566980    0.45082999    0.08750994    -0.13560000
opls_145-56    C    0.63429021    0.39366964    0.08696028    -0.12290000
opls_145-57    C    0.92648017    0.22612992    0.11608021    -0.17240000
opls_145-58    C    0.97613015    0.16649963    0.08266027    -0.11970000
opls_700-59    C    0.94429999    0.07833036    0.03901001    0.07830000
opls_145-60    C    0.86761032    0.04308983    0.04157017    -0.12080000
opls_145-61    C    0.81698005    0.10400965    0.07273990    -0.17360000
opls_916-62    C    0.15593000    0.19834001    0.39320028    0.17560000
opls_234-63    C    0.21154984    0.36468968    0.36609020    0.47560000
opls_700-64    C    0.28526990    0.42274981    0.36420987    -0.03470000
opls_145-65    C    0.27552995    0.51144024    0.31740017    -0.12890000
opls_145-66    C    0.34412998    0.57283964    0.32427000    -0.13490000
opls_700-67    C    0.42569004    0.54404009    0.37257017    0.00550000
opls_145-68    C    0.43434021    0.45082999    0.41249006    -0.13560000
opls_145-69    C    0.36570979    0.39365999    0.41303972    -0.12290000
opls_145-70    C    0.18301018    0.10400000    0.42724012    -0.17360000
opls_145-71    C    0.13238019    0.04308983    0.45842016    -0.12080000
opls_700-72    C    0.05570001    0.07833036    0.46098999    0.07830000
opls_145-73    C    0.02386985    0.16651002    0.41733973    -0.11970000
opls_145-74    C    0.07351983    0.22614031    0.38391979    -0.17250000
opls_175-75    C    0.50272961    0.59744989    0.85942979    0.20140000
opls_174-76    C    0.53085989    0.53134967    0.79534983    0.05760000
opls_197-77    C    0.49999990    0.37248998    0.74999968    0.49690000
opls_135-78    C    0.56557020    0.30523014    0.73248003    -0.51560000
opls_135-79    C    0.43444016    0.30523014    0.76753994    -0.51560000
opls_174-80    C    0.46914011    0.53134001    0.70465017    0.05760000
opls_175-81    C    0.49725979    0.59744989    0.64057021    0.20140000
opls_916-82    C    0.85850006    0.86685004    0.25510002    0.17020000
opls_234-83    C    0.80488969    0.73534001    0.13776969    0.44410000
opls_700-84    C    0.73020020    0.70266964    0.06365982    -0.03600000
opls_145-85    C    0.72993007    0.61246028    0.02059016    -0.13760000
opls_145-86    C    0.65632988    0.57172012    0.96334007    -0.13500000
opls_700-87    C    0.58099963    0.62455976    0.94161966    0.01060000
opls_145-88    C    0.58343025    0.71878025    0.97894008    -0.12250000
opls_145-89    C    0.65491992    0.75540980    0.04103984    -0.12070000
opls_145-90    C    0.92810002    0.81876021    0.31270000    -0.19150000
opls_145-91    C    0.97048027    0.86148998    0.39338006    -0.13350000
opls_700-92    C    0.94548986    0.95172977    0.42064996    0.04400000
opls_145-93    C    0.87653019    0.99870007    0.36144029    -0.13400000
opls_145-94    C    0.83355968    0.95704974    0.28134984    -0.17480000
opls_916-95    C    0.14148992    0.86683964    0.24489998    0.17010000
opls_234-96    C    0.19510009    0.73533036    0.36222966    0.42850000
opls_700-97    C    0.26978979    0.70265033    0.43634018    -0.03600000
opls_145-98    C    0.27005991    0.61244989    0.47940984    -0.13770000
opls_145-99    C    0.34367012    0.57170007    0.53665993    -0.13500000
opls_700-100    C    0.41899009    0.62455011    0.55837003    0.01060000
opls_145-101    C    0.41656025    0.71876021    0.52105025    -0.12250000
opls_145-102    C    0.34506979    0.75540015    0.45894985    -0.11970000
opls_145-103    C    0.16643031    0.95704009    0.21865016    -0.17330000
opls_145-104    C    0.12347008    0.99868968    0.13857002    -0.13400000
opls_700-105    C    0.05450013    0.95172012    0.07935004    0.04400000
opls_145-106    C    0.02951023    0.86148033    0.10661027    -0.13350000
opls_145-107    C    0.07189970    0.81874981    0.18728969    -0.19150000
opls_916-108    C    0.15594009    0.19834967    0.89320995    0.17560000
opls_234-109    C    0.21154984    0.36468003    0.86609020    0.47560000
opls_700-110    C    0.28526990    0.42274981    0.86420987    -0.03470000
opls_145-111    C    0.27552995    0.51144024    0.81740017    -0.13000000
opls_145-112    C    0.34411997    0.57285004    0.82427000    -0.13480000
opls_700-113    C    0.42568976    0.54404974    0.87255986    0.00550000
opls_145-114    C    0.43433020    0.45082999    0.91249006    -0.13560000
opls_145-115    C    0.36570979    0.39366964    0.91303972    -0.12290000
opls_145-116    C    0.07351983    0.22612992    0.88391979    -0.17240000
opls_145-117    C    0.02386985    0.16649963    0.91733973    -0.11960000
opls_700-118    C    0.05570001    0.07833036    0.96098999    0.07830000
opls_145-119    C    0.13238968    0.04308983    0.95842983    -0.12070000
opls_145-120    C    0.18301995    0.10400965    0.92726010    -0.17360000
opls_916-121    C    0.84407000    0.19834001    0.60679972    0.17560000
opls_234-122    C    0.78845016    0.36468968    0.63390980    0.47570000
opls_700-123    C    0.71473010    0.42274981    0.63579013    -0.03470000
opls_145-124    C    0.72447005    0.51144024    0.68259983    -0.12890000
opls_145-125    C    0.65587002    0.57283964    0.67573000    -0.13490000
opls_700-126    C    0.57430996    0.54404009    0.62742983    0.00550000
opls_145-127    C    0.56565979    0.45082999    0.58750994    -0.13560000
opls_145-128    C    0.63429021    0.39365999    0.58696028    -0.12290000
opls_145-129    C    0.81698982    0.10400000    0.57275988    -0.17360000
opls_145-130    C    0.86761981    0.04308983    0.54157984    -0.12080000
opls_700-131    C    0.94429999    0.07833036    0.53901001    0.07830000
opls_145-132    C    0.97613015    0.16651002    0.58266027    -0.11970000
opls_145-133    C    0.92648017    0.22614031    0.61608021    -0.17250000
opls_701-134    C    0.00000000    0.01200965    0.50000000    0.02760000
opls_701-135    C    0.00000000    0.01200965    0.00000000    0.02760000
opls_238-136    N    0.18856966    0.83108983    0.83073967    -0.42780000
opls_238-137    N    0.81144015    0.83108018    0.66925969    -0.42460000
opls_238-138    N    0.78611979    0.26236006    0.13022970    -0.44570000
opls_238-139    N    0.21386993    0.26236006    0.36975999    -0.44570000
opls_238-140    N    0.81143014    0.83108983    0.16925969    -0.42780000
opls_238-141    N    0.18855965    0.83108018    0.33073967    -0.42460000
opls_238-142    N    0.21388001    0.26236006    0.86976966    -0.44570000
opls_238-143    N    0.78613007    0.26236006    0.63024001    -0.44570000
opls_172-144    H    0.47988981    0.73110022    0.18153981    0.34060000
opls_172-145    H    0.52011969    0.73110022    0.31846986    0.34060000
opls_176-146    H    0.40789967    0.55846028    0.20490986    0.04190000
opls_140-147    H    0.45900011    0.27031997    0.33217988    0.16600000
opls_140-148    H    0.41550988    0.24529993    0.21842978    0.16330000
opls_140-149    H    0.37723999    0.34814996    0.26152973    0.10160000
opls_140-150    H    0.54099011    0.27033036    0.16780015    0.16610000
opls_140-151    H    0.58448035    0.24529027    0.28155024    0.16340000
opls_140-152    H    0.62274972    0.34814031    0.23845996    0.10160000
opls_176-153    H    0.59210975    0.55844989    0.29509014    0.04160000
opls_241-154    H    0.22717995    0.88400000    0.87062992    0.25960000
opls_146-155    H    0.21320980    0.56987008    0.96538021    0.11650000
opls_146-156    H    0.33903004    0.50034001    0.06458001    0.11580000
opls_146-157    H    0.46769002    0.76980030    0.04444028    0.08940000
opls_146-158    H    0.35026990    0.82568968    0.92944973    0.11500000
opls_146-159    H    0.04791020    0.75068003    0.70457026    0.11270000
opls_146-160    H    0.97336976    0.82565999    0.56631986    0.11690000
opls_146-161    H    0.14492002    0.07070973    0.62505977    0.11560000
opls_146-162    H    0.21903016    0.99700965    0.76138023    0.10970000
opls_241-163    H    0.77283006    0.88397996    0.62937008    0.26000000
opls_146-164    H    0.78679962    0.56985969    0.53461979    0.11650000
opls_146-165    H    0.66096996    0.50033036    0.43541999    0.12110000
opls_146-166    H    0.53232027    0.76978990    0.45557003    0.10510000
opls_146-167    H    0.64974019    0.82568003    0.57055994    0.11500000
opls_146-168    H    0.78097978    0.99700000    0.73861010    0.10970000
opls_146-169    H    0.85508971    0.07070973    0.87492992    0.11210000
opls_146-170    H    0.02663024    0.82565033    0.93368014    0.11700000
opls_146-171    H    0.95210009    0.75066964    0.79544005    0.09690000
opls_241-172    H    0.73330982    0.22776986    0.13662977    0.25980000
opls_146-173    H    0.78563982    0.53448998    0.22305005    0.11800000
opls_146-174    H    0.66796986    0.64087008    0.21277011    0.11900000
opls_146-175    H    0.50587977    0.41629027    0.06444017    0.23960000
opls_146-176    H    0.62363994    0.32436971    0.05164970    0.11440000
opls_146-177    H    0.95409990    0.29293987    0.14936998    0.10150000
opls_146-178    H    0.03842967    0.19185004    0.08978979    0.11670000
opls_146-179    H    0.84431016    0.97072012    0.01642998    0.11390000
opls_146-180    H    0.75540988    0.07817001    0.06859004    0.11300000
opls_241-181    H    0.26668991    0.22776986    0.36335992    0.25970000
opls_146-182    H    0.21436018    0.53448998    0.27694995    0.11800000
opls_146-183    H    0.33202983    0.64087008    0.28724020    0.11720000
opls_146-184    H    0.49412966    0.41627988    0.43555983    0.23960000
opls_146-185    H    0.37635978    0.32436006    0.44833999    0.11430000
opls_146-186    H    0.24457006    0.07814996    0.43137968    0.11310000
opls_146-187    H    0.15568006    0.97072012    0.48355004    0.11690000
opls_146-188    H    0.96157983    0.19185969    0.41021988    0.11780000
opls_146-189    H    0.04589986    0.29295026    0.35065000    0.10750000
opls_172-190    H    0.52011019    0.73110022    0.81846019    0.34060000
opls_172-191    H    0.47987972    0.73110022    0.68153014    0.34060000
opls_176-192    H    0.59209974    0.55846028    0.79509014    0.04190000
opls_140-193    H    0.54099989    0.27031997    0.66782012    0.16600000
opls_140-194    H    0.58449012    0.24529993    0.78157022    0.16330000
opls_140-195    H    0.62276001    0.34814996    0.73847027    0.10170000
opls_140-196    H    0.45900989    0.27033036    0.83219985    0.16600000
opls_140-197    H    0.41551965    0.24529027    0.71844976    0.16340000
opls_140-198    H    0.37724969    0.34814031    0.76154004    0.10160000
opls_176-199    H    0.40788966    0.55844989    0.70490986    0.04160000
opls_241-200    H    0.77282005    0.88400000    0.12937008    0.25960000
opls_146-201    H    0.78679020    0.56987008    0.03461979    0.11650000
opls_146-202    H    0.66096996    0.50034001    0.93541999    0.11590000
opls_146-203    H    0.53230998    0.76980030    0.95555972    0.08940000
opls_146-204    H    0.64973010    0.82568968    0.07055027    0.11500000
opls_146-205    H    0.95208980    0.75068003    0.29542974    0.11270000
opls_146-206    H    0.02663024    0.82565999    0.43368014    0.11690000
opls_146-207    H    0.85507998    0.07070973    0.37494023    0.11560000
opls_146-208    H    0.78096984    0.99700965    0.23861977    0.10970000
opls_241-209    H    0.22716994    0.88397996    0.37062992    0.26000000
opls_146-210    H    0.21319979    0.56985969    0.46538021    0.11650000
opls_146-211    H    0.33903004    0.50033036    0.56458001    0.12110000
opls_146-212    H    0.46767973    0.76978990    0.54442997    0.10510000
opls_146-213    H    0.35025981    0.82568003    0.42944006    0.11510000
opls_146-214    H    0.21902022    0.99700000    0.26138990    0.10970000
opls_146-215    H    0.14491029    0.07070973    0.12507008    0.11210000
opls_146-216    H    0.97336976    0.82565033    0.06631986    0.11700000
opls_146-217    H    0.04789991    0.75066964    0.20455995    0.09680000
opls_241-218    H    0.26669018    0.22776986    0.86337023    0.25970000
opls_146-219    H    0.21436018    0.53448998    0.77694995    0.11800000
opls_146-220    H    0.33203014    0.64087008    0.78722989    0.11890000
opls_146-221    H    0.49411965    0.41629027    0.93555983    0.23960000
opls_146-222    H    0.37635986    0.32436971    0.94834966    0.11430000
opls_146-223    H    0.04590010    0.29293987    0.85063002    0.10150000
opls_146-224    H    0.96156974    0.19185004    0.91021021    0.11500000
opls_146-225    H    0.15568984    0.97072012    0.98357002    0.11400000
opls_146-226    H    0.24459012    0.07817001    0.93140996    0.11300000
opls_241-227    H    0.73331009    0.22776986    0.63664008    0.25970000
opls_146-228    H    0.78563982    0.53448998    0.72305005    0.11800000
opls_146-229    H    0.66797017    0.64087008    0.71275980    0.11730000
opls_146-230    H    0.50586975    0.41627988    0.56444017    0.23960000
opls_146-231    H    0.62364022    0.32436006    0.55166001    0.11430000
opls_146-232    H    0.75542974    0.07814996    0.56861968    0.11300000
opls_146-233    H    0.84431994    0.97072012    0.51644996    0.11690000
opls_146-234    H    0.03842017    0.19185969    0.58978012    0.11780000
opls_146-235    H    0.95410014    0.29295026    0.64935000    0.10750000
