#======================================================================
# Crystal Data Generated By AuToFF
#----------------------------------------------------------------------

data_AuToFF_phase_1

_cell_length_a                         43.4000
_cell_length_b                         43.2000
_cell_length_c                         7.2980
_cell_angle_alpha                      90.00
_cell_angle_beta                       90.00
_cell_angle_gamma                      120.00
_symmetry_space_group_name_H-M_alt     'P 1'
_symmetry_space_group_IT_number        1

loop_
_space_group_symop_operation_xyz
   'x, y, z'

loop_
   _atom_site_label
   _atom_site_type_symbol
   _atom_site_fract_x
   _atom_site_fract_y
   _atom_site_fract_z
   _atom_site_charge
opls_700-0    C    0.48503987    0.95081992    0.16265004    0.01760000
opls_700-1    C    0.49478991    0.92418991    0.22452042    -0.09650000
opls_166-2    C    0.53090003    0.94336996    0.29322965    0.22080000
opls_145-3    C    0.43837004    0.96019999    0.03147986    -0.09330000
opls_145-4    C    0.45080004    0.93757000    0.08721019    -0.11810000
opls_142-5    C    0.46543001    0.87897002    0.23581940    0.04610000
opls_145-6    C    0.44290994    0.80550006    0.23138942    0.19120000
opls_145-7    C    0.40427992    0.78394993    0.23926966    -0.12840000
opls_523-8    C    0.38302986    0.74364982    0.23972047    -0.10140000
opls_700-9    C    0.39712006    0.71906993    0.23274048    -0.02840000
opls_523-10    C    0.43565997    0.74113995    0.22510962    -0.10150000
opls_145-11    C    0.45674000    0.78104982    0.22406961    -0.12770000
opls_531-12    C    0.37371006    0.67317994    0.23308989    0.32930000
opls_531-13    C    0.31515997    0.61472003    0.23301041    0.32930000
opls_531-14    C    0.37341994    0.61440997    0.23342971    0.32730000
opls_700-15    C    0.39586998    0.59102996    0.23338997    -0.02840000
opls_700-16    C    0.26940998    0.59148996    0.23315018    -0.02940000
opls_523-17    C    0.24513997    0.60589004    0.22358043    -0.10170000
opls_145-18    C    0.20499004    0.58481008    0.22383941    -0.12840000
opls_145-19    C    0.18322002    0.54603005    0.23426966    0.19120000
opls_145-20    C    0.20737001    0.53189994    0.24425048    -0.12770000
opls_523-21    C    0.24713003    0.55282006    0.24322006    -0.10150000
opls_523-22    C    0.37956998    0.55236005    0.22238010    -0.10150000
opls_145-23    C    0.39845983    0.53139983    0.22134009    -0.12770000
opls_145-24    C    0.43664987    0.54545992    0.23234037    0.19130000
opls_145-25    C    0.45354007    0.58423005    0.24375034    -0.12840000
opls_523-26    C    0.43444001    0.60534984    0.24393944    -0.10170000
opls_142-27    C    0.11010009    0.52389000    0.22732941    0.04540000
opls_700-28    C    0.06495995    0.49447000    0.23896958    -0.09630000
opls_700-29    C    0.03856010    0.50468001    0.29814059    0.01750000
opls_166-30    C    0.04528989    0.45763987    0.17445053    0.20900000
opls_145-31    C    0.05203012    0.53936005    0.37046040    -0.11760000
opls_145-32    C    0.02976994    0.55219006    0.42577967    -0.09320000
opls_700-33    C    0.99820998    0.48132005    0.29097972    0.02350000
opls_700-34    C    0.97875004    0.44445009    0.22782954    -0.09650000
opls_166-35    C    0.00519008    0.43424997    0.17309948    0.20910000
opls_145-36    C    0.99305990    0.53094998    0.41466018    -0.09020000
opls_145-37    C    0.97751988    0.49605985    0.35003974    -0.11610000
opls_142-38    C    0.93356993    0.41564004    0.20902028    0.04520000
opls_145-39    C    0.86037992    0.39243003    0.23849959    0.19120000
opls_145-40    C    0.83616002    0.40589004    0.27259934    -0.12770000
opls_523-41    C    0.79640000    0.38501990    0.26905042    -0.10150000
opls_700-42    C    0.77419006    0.34693002    0.23399013    -0.02940000
opls_523-43    C    0.79854012    0.33315006    0.20106056    -0.10170000
opls_145-44    C    0.83867991    0.35428001    0.20201014    -0.12840000
opls_531-45    C    0.72845991    0.32355001    0.23324061    0.32730000
opls_531-46    C    0.66986997    0.32319986    0.23583996    0.32930000
opls_531-47    C    0.67022003    0.26476988    0.23406961    0.32670000
opls_700-48    C    0.64726996    0.34642992    0.23533023    -0.02980000
opls_141-49    C    0.64831993    0.21897985    0.23410935    -0.04010000
opls_261-50    C    0.61357006    0.19306993    0.24748972    -0.05350000
opls_137-51    C    0.60193990    0.12908990    0.27701973    0.10770000
opls_142-52    C    0.64290000    0.15331990    0.21685941    -0.09430000
opls_142-53    C    0.66286000    0.19219000    0.21024938    -0.09770000
opls_523-54    C    0.66331998    0.38486006    0.21147027    -0.10150000
opls_145-55    C    0.64441004    0.40579007    0.20900932    -0.12770000
opls_145-56    C    0.60645006    0.39197002    0.23208002    0.19120000
opls_145-57    C    0.58979013    0.35345007    0.25694985    -0.12840000
opls_523-58    C    0.60888998    0.33230996    0.25765004    -0.10170000
opls_142-59    C    0.55599003    0.41496005    0.25173061    0.04640000
opls_700-60    C    0.54036987    0.44443993    0.24042066    -0.09660000
opls_700-61    C    0.55748005    0.48120992    0.17664018    0.02350000
opls_700-62    C    0.54024995    0.50439989    0.16969033    0.01750000
opls_700-63    C    0.50358987    0.49391991    0.22828035    -0.09630000
opls_166-64    C    0.48668008    0.45704006    0.29251987    0.20910000
opls_166-65    C    0.50408005    0.43402009    0.29722938    0.20910000
opls_145-66    C    0.59279001    0.49597993    0.11657988    -0.12290000
opls_145-67    C    0.61185008    0.53087006    0.05190052    -0.09040000
opls_145-68    C    0.59618987    0.55203984    0.04154974    -0.09340000
opls_145-69    C    0.56116989    0.53910986    0.09742943    -0.11810000
opls_142-70    C    0.48764991    0.52326000    0.24033982    0.04530000
opls_142-71    C    0.57050993    0.05515004    0.28865991    0.04540000
opls_700-72    C    0.54463996    0.01042010    0.24123047    -0.09670000
opls_700-73    C    0.50840012    0.99124005    0.17224993    0.02260000
opls_166-74    C    0.55440999    0.98375989    0.29953001    0.20880000
opls_145-75    C    0.49405988    0.01234995    0.11358043    -0.12210000
opls_145-76    C    0.45957000    0.99704990    0.04570978    -0.09350000
opls_142-77    C    0.58815998    0.15700986    0.25205947    -0.12740000
opls_700-78    C    0.48503987    0.95081992    0.66265004    0.01760000
opls_700-79    C    0.49478991    0.92418991    0.72452042    -0.09650000
opls_166-80    C    0.53090003    0.94336996    0.79322965    0.22080000
opls_145-81    C    0.43837004    0.96019999    0.53147986    -0.09330000
opls_145-82    C    0.45080004    0.93757000    0.58721019    -0.11810000
opls_142-83    C    0.46543001    0.87897002    0.73581940    0.04610000
opls_145-84    C    0.44290994    0.80550006    0.73138942    0.19120000
opls_145-85    C    0.40427992    0.78394993    0.73926966    -0.12840000
opls_523-86    C    0.38302986    0.74364982    0.73972047    -0.10150000
opls_700-87    C    0.39712006    0.71906993    0.73274048    -0.02840000
opls_523-88    C    0.43565997    0.74113995    0.72510962    -0.10150000
opls_145-89    C    0.45674000    0.78104982    0.72406961    -0.12770000
opls_531-90    C    0.37371006    0.67317994    0.73308989    0.32930000
opls_531-91    C    0.31515997    0.61472003    0.73301041    0.32930000
opls_531-92    C    0.37341994    0.61440997    0.73342971    0.32730000
opls_700-93    C    0.39586998    0.59102996    0.73338997    -0.02840000
opls_700-94    C    0.26940998    0.59148996    0.73315018    -0.02940000
opls_523-95    C    0.24513997    0.60589004    0.72358043    -0.10170000
opls_145-96    C    0.20499004    0.58481008    0.72383941    -0.12840000
opls_145-97    C    0.18322002    0.54603005    0.73426966    0.19120000
opls_145-98    C    0.20737001    0.53189994    0.74425048    -0.12770000
opls_523-99    C    0.24713003    0.55282006    0.74322006    -0.10150000
opls_523-100    C    0.37956998    0.55236005    0.72238010    -0.10150000
opls_145-101    C    0.39845983    0.53139983    0.72134009    -0.12770000
opls_145-102    C    0.43664987    0.54545992    0.73234037    0.19120000
opls_145-103    C    0.45354007    0.58423005    0.74375034    -0.12840000
opls_523-104    C    0.43444001    0.60534984    0.74393944    -0.10170000
opls_142-105    C    0.11010009    0.52389000    0.72732941    0.04540000
opls_700-106    C    0.06495995    0.49447000    0.73896958    -0.09630000
opls_700-107    C    0.03856010    0.50468001    0.79814059    0.01750000
opls_166-108    C    0.04528989    0.45763987    0.67445053    0.20890000
opls_145-109    C    0.05203012    0.53936005    0.87046040    -0.11760000
opls_145-110    C    0.02976994    0.55219006    0.92577967    -0.09320000
opls_700-111    C    0.99820998    0.48132005    0.79097972    0.02350000
opls_700-112    C    0.97875004    0.44445009    0.72782954    -0.09650000
opls_166-113    C    0.00519008    0.43424997    0.67309948    0.20910000
opls_145-114    C    0.99305990    0.53094998    0.91466018    -0.09020000
opls_145-115    C    0.97751988    0.49605985    0.85003974    -0.11610000
opls_142-116    C    0.93356993    0.41564004    0.70902028    0.04520000
opls_145-117    C    0.86037992    0.39243003    0.73849959    0.19120000
opls_145-118    C    0.83616002    0.40589004    0.77259934    -0.12770000
opls_523-119    C    0.79640000    0.38501990    0.76905042    -0.10150000
opls_700-120    C    0.77419006    0.34693002    0.73399013    -0.02940000
opls_523-121    C    0.79854012    0.33315006    0.70106056    -0.10170000
opls_145-122    C    0.83867991    0.35428001    0.70201014    -0.12840000
opls_531-123    C    0.72845991    0.32355001    0.73324061    0.32730000
opls_531-124    C    0.66986997    0.32319986    0.73583996    0.32930000
opls_531-125    C    0.67022003    0.26476988    0.73406961    0.32670000
opls_700-126    C    0.64726996    0.34642992    0.73533023    -0.02980000
opls_141-127    C    0.64831993    0.21897985    0.73410935    -0.04010000
opls_261-128    C    0.61357006    0.19306993    0.74748972    -0.05350000
opls_137-129    C    0.60193990    0.12908990    0.77701973    0.10770000
opls_142-130    C    0.64290000    0.15331990    0.71685941    -0.09430000
opls_142-131    C    0.66286000    0.19219000    0.71024938    -0.09770000
opls_523-132    C    0.66331998    0.38486006    0.71147027    -0.10150000
opls_145-133    C    0.64441004    0.40579007    0.70900932    -0.12770000
opls_145-134    C    0.60645006    0.39197002    0.73208002    0.19120000
opls_145-135    C    0.58979013    0.35345007    0.75694985    -0.12840000
opls_523-136    C    0.60888998    0.33230996    0.75765004    -0.10170000
opls_142-137    C    0.55599003    0.41496005    0.75173061    0.04640000
opls_700-138    C    0.54036987    0.44443993    0.74042066    -0.09660000
opls_700-139    C    0.55748005    0.48120992    0.67664018    0.02350000
opls_700-140    C    0.54024995    0.50439989    0.66969033    0.01750000
opls_700-141    C    0.50358987    0.49391991    0.72828035    -0.09630000
opls_166-142    C    0.48668008    0.45704006    0.79251987    0.20910000
opls_166-143    C    0.50408005    0.43402009    0.79724034    0.20920000
opls_145-144    C    0.59279001    0.49597993    0.61657988    -0.12290000
opls_145-145    C    0.61185008    0.53087006    0.55190052    -0.09040000
opls_145-146    C    0.59618987    0.55203984    0.54154974    -0.09340000
opls_145-147    C    0.56116989    0.53910986    0.59742943    -0.11810000
opls_142-148    C    0.48764991    0.52326000    0.74033982    0.04530000
opls_142-149    C    0.57050993    0.05515004    0.78865991    0.04540000
opls_700-150    C    0.54463996    0.01042010    0.74123047    -0.09670000
opls_700-151    C    0.50840012    0.99124005    0.67224993    0.02260000
opls_166-152    C    0.55440999    0.98375989    0.79953001    0.20880000
opls_145-153    C    0.49405988    0.01234995    0.61358043    -0.12210000
opls_145-154    C    0.45957000    0.99704990    0.54570978    -0.09350000
opls_142-155    C    0.58815998    0.15700986    0.75205947    -0.12740000
opls_167-156    O    0.54356986    0.92173991    0.36463004    -0.53400000
opls_167-157    O    0.06496012    0.44278005    0.10244999    -0.46580000
opls_167-158    O    0.99180012    0.39934006    0.10855988    -0.46530000
opls_167-159    O    0.48477988    0.39917995    0.36765004    -0.54890000
opls_167-160    O    0.45201997    0.44194984    0.36291039    -0.53430000
opls_167-161    O    0.58876004    0.99687990    0.37110989    -0.53430000
opls_167-162    O    0.54356986    0.92173991    0.86463004    -0.53410000
opls_167-163    O    0.06496012    0.44278005    0.60244999    -0.46580000
opls_167-164    O    0.99180012    0.39934006    0.60855988    -0.46540000
opls_167-165    O    0.48477988    0.39917995    0.86765004    -0.54890000
opls_167-166    O    0.45201997    0.44194984    0.86291039    -0.53420000
opls_167-167    O    0.58876004    0.99687990    0.87110989    -0.53420000
opls_750-168    N    0.46799986    0.84795990    0.22700055    -0.24080000
opls_520-169    N    0.33577998    0.65278986    0.23288983    -0.37720000
opls_520-170    N    0.33556997    0.59716002    0.23324061    -0.37770000
opls_520-171    N    0.39094009    0.65243008    0.23338997    -0.37760000
opls_750-172    N    0.14085001    0.52110001    0.23889970    -0.23970000
opls_750-173    N    0.90272995    0.41709999    0.24942039    -0.23970000
opls_520-174    N    0.70776004    0.34077990    0.23493012    -0.37780000
opls_530-175    N    0.65257003    0.28511987    0.23640998    -0.37690000
opls_530-176    N    0.70810012    0.28554005    0.23183064    -0.37750000
opls_750-177    N    0.58894012    0.41690006    0.22520005    -0.23970000
opls_750-178    N    0.45414997    0.52049994    0.22747054    -0.24090000
opls_750-179    N    0.57782995    0.08780000    0.20898054    -0.13220000
opls_750-180    N    0.46799986    0.84795990    0.72700055    -0.24090000
opls_520-181    N    0.33577998    0.65278986    0.73288983    -0.37720000
opls_520-182    N    0.33556997    0.59716002    0.73324061    -0.37770000
opls_520-183    N    0.39094009    0.65243008    0.73338997    -0.37760000
opls_750-184    N    0.14085001    0.52110001    0.73889970    -0.23970000
opls_750-185    N    0.90272995    0.41709999    0.74942039    -0.23970000
opls_520-186    N    0.70776004    0.34077990    0.73493012    -0.37780000
opls_530-187    N    0.65257003    0.28511987    0.73640998    -0.37700000
opls_530-188    N    0.70810012    0.28554005    0.73183064    -0.37750000
opls_750-189    N    0.58894012    0.41690006    0.72520005    -0.23970000
opls_750-190    N    0.45414997    0.52049994    0.72747054    -0.24090000
opls_750-191    N    0.57782995    0.08780000    0.70898054    -0.13220000
opls_146-192    H    0.41193991    0.94892001    0.97366950    0.11540000
opls_146-193    H    0.43316006    0.90936002    0.06579063    0.11360000
opls_144-194    H    0.43844996    0.87339992    0.25318032    0.09930000
opls_168-195    H    0.56847984    0.93602986    0.41721979    0.30040000
opls_146-196    H    0.38971986    0.79818990    0.24479035    0.11810000
opls_526-197    H    0.35438984    0.73146986    0.24597013    0.12180000
opls_526-198    H    0.45047983    0.72712985    0.21900932    0.11970000
opls_146-199    H    0.48538997    0.79335994    0.21697999    0.11670000
opls_526-200    H    0.25747003    0.63466988    0.21523979    0.11940000
opls_146-201    H    0.19102005    0.59961991    0.21614004    0.11630000
opls_146-202    H    0.19497998    0.50313988    0.25352014    0.11960000
opls_526-203    H    0.26086991    0.53773999    0.25151000    0.11750000
opls_526-204    H    0.35084010    0.53735002    0.21325980    0.11970000
opls_146-205    H    0.38219006    0.50264993    0.21120033    0.12090000
opls_146-206    H    0.48225004    0.59898990    0.25225952    0.12070000
opls_526-207    H    0.45079002    0.63412995    0.25305015    0.11710000
opls_144-208    H    0.11581010    0.55098003    0.20627021    0.12080000
opls_146-209    H    0.08014983    0.55705984    0.39019046    0.11540000
opls_146-210    H    0.04124008    0.57894997    0.48114004    0.11750000
opls_168-211    H    0.09163990    0.45876998    0.11204988    0.30150000
opls_146-212    H    0.97633988    0.54143985    0.46033982    0.11720000
opls_146-213    H    0.94877998    0.48038987    0.34771992    0.12180000
opls_144-214    H    0.92795002    0.39056995    0.14818992    0.11530000
opls_168-215    H    0.97330005    0.38108991    0.19432995    0.29970000
opls_146-216    H    0.84843995    0.43407008    0.30388052    0.11780000
opls_526-217    H    0.78260985    0.39954988    0.29750069    0.11680000
opls_526-218    H    0.78625998    0.30487006    0.17197999    0.11940000
opls_146-219    H    0.85273014    0.34001010    0.17442998    0.12040000
opls_140-220    H    0.60349997    0.12699994    0.42614004    0.05760000
opls_144-221    H    0.65732992    0.13924993    0.19329953    0.11720000
opls_144-222    H    0.69095005    0.20460009    0.17888052    0.11530000
opls_526-223    H    0.69186012    0.39968005    0.19221019    0.11680000
opls_146-224    H    0.66050988    0.43429995    0.18787065    0.12040000
opls_146-225    H    0.56127014    0.33892009    0.27577007    0.11630000
opls_526-226    H    0.59274998    0.30373006    0.27744039    0.11680000
opls_144-227    H    0.53471003    0.38874007    0.29128939    0.12350000
opls_146-228    H    0.60599988    0.48035994    0.11862976    0.11970000
opls_146-229    H    0.63900008    0.54142007    0.00567005    0.11690000
opls_146-230    H    0.61128003    0.57882007    0.98620992    0.11580000
opls_146-231    H    0.55057000    0.55673001    0.07795012    0.12100000
opls_144-232    H    0.50885993    0.55030004    0.26315977    0.09860000
opls_168-233    H    0.45997995    0.39269999    0.41043025    0.29740000
opls_168-234    H    0.44120011    0.45794004    0.35298986    0.30230000
opls_144-235    H    0.58522015    0.05832012    0.41325021    0.11560000
opls_146-236    H    0.50980005    0.04123991    0.11873938    0.11260000
opls_146-237    H    0.44937001    0.01404992    0.00004933    0.11670000
opls_168-238    H    0.60671997    0.02159985    0.32570978    0.33300000
opls_144-239    H    0.56027991    0.14858001    0.27036037    0.11450000
opls_146-240    H    0.41193991    0.94892001    0.47366950    0.11540000
opls_146-241    H    0.43316006    0.90936002    0.56579063    0.11360000
opls_144-242    H    0.43844996    0.87339992    0.75318032    0.09930000
opls_168-243    H    0.56847984    0.93602986    0.91721019    0.30030000
opls_146-244    H    0.38971986    0.79818990    0.74479035    0.11810000
opls_526-245    H    0.35438984    0.73146986    0.74597013    0.12190000
opls_526-246    H    0.45047983    0.72712985    0.71900932    0.11970000
opls_146-247    H    0.48538997    0.79335994    0.71697999    0.11670000
opls_526-248    H    0.25747003    0.63466988    0.71523979    0.11940000
opls_146-249    H    0.19102005    0.59961991    0.71614004    0.11630000
opls_146-250    H    0.19497998    0.50313988    0.75352014    0.11960000
opls_526-251    H    0.26086991    0.53773999    0.75151000    0.11750000
opls_526-252    H    0.35084010    0.53735002    0.71325980    0.11970000
opls_146-253    H    0.38219006    0.50264993    0.71120033    0.12100000
opls_146-254    H    0.48225004    0.59898990    0.75225952    0.12070000
opls_526-255    H    0.45079002    0.63412995    0.75305015    0.11710000
opls_144-256    H    0.11581010    0.55098003    0.70627021    0.12080000
opls_146-257    H    0.08014983    0.55705984    0.89019046    0.11540000
opls_146-258    H    0.04124008    0.57894997    0.98114004    0.11750000
opls_168-259    H    0.09163990    0.45876998    0.61204988    0.30150000
opls_146-260    H    0.97633988    0.54143985    0.96033982    0.11720000
opls_146-261    H    0.94877998    0.48038987    0.84771992    0.12180000
opls_144-262    H    0.92795002    0.39056995    0.64818032    0.11560000
opls_168-263    H    0.97330005    0.38108991    0.69432995    0.29970000
opls_146-264    H    0.84843995    0.43407008    0.80386955    0.11780000
opls_526-265    H    0.78260985    0.39954988    0.79749931    0.11680000
opls_526-266    H    0.78625998    0.30487006    0.67197999    0.11940000
opls_146-267    H    0.85273014    0.34001010    0.67442998    0.12040000
opls_140-268    H    0.60349997    0.12699994    0.92614004    0.05750000
opls_144-269    H    0.65732992    0.13924993    0.69329953    0.11720000
opls_144-270    H    0.69095005    0.20460009    0.67888052    0.11530000
opls_526-271    H    0.69186012    0.39968005    0.69221019    0.11680000
opls_146-272    H    0.66050988    0.43429995    0.68787065    0.12040000
opls_146-273    H    0.56127014    0.33892009    0.77577007    0.11630000
opls_526-274    H    0.59274998    0.30373006    0.77744039    0.11680000
opls_144-275    H    0.53471003    0.38874007    0.79128939    0.12350000
opls_146-276    H    0.60599988    0.48035994    0.61862976    0.11970000
opls_146-277    H    0.63900008    0.54142007    0.50567005    0.11690000
opls_146-278    H    0.61128003    0.57882007    0.48620992    0.11590000
opls_146-279    H    0.55057000    0.55673001    0.57795012    0.12100000
opls_144-280    H    0.50885993    0.55030004    0.76315977    0.09860000
opls_168-281    H    0.45997995    0.39269999    0.91043025    0.29740000
opls_168-282    H    0.44120011    0.45794004    0.85298986    0.30230000
opls_144-283    H    0.58522015    0.05832012    0.91325021    0.11560000
opls_146-284    H    0.50980005    0.04123991    0.61873938    0.11260000
opls_146-285    H    0.44937001    0.01404992    0.50004933    0.11670000
opls_168-286    H    0.60671997    0.02159985    0.82570978    0.33300000
opls_144-287    H    0.56027991    0.14858001    0.77036037    0.11450000
