#======================================================================
# Crystal Data Generated By AuToFF
#----------------------------------------------------------------------

data_AuToFF_phase_1

_cell_length_a                         45.0570
_cell_length_b                         45.0570
_cell_length_c                         3.6500
_cell_angle_alpha                      90.00
_cell_angle_beta                       90.00
_cell_angle_gamma                      120.00
_symmetry_space_group_name_H-M_alt     'P 1'
_symmetry_space_group_IT_number        1

loop_
_space_group_symop_operation_xyz
   'x, y, z'

loop_
   _atom_site_label
   _atom_site_type_symbol
   _atom_site_fract_x
   _atom_site_fract_y
   _atom_site_fract_z
   _atom_site_charge
opls_145-0    C    0.21172989    0.14244996    0.30393973    -0.20900000
opls_145-1    C    0.24564994    0.15890002    0.34635068    -0.20900000
opls_145-2    C    0.26135003    0.14187001    0.46846027    0.03550000
opls_145-3    C    0.24193994    0.10813006    0.55198904    -0.21560000
opls_145-4    C    0.20813993    0.09186989    0.51327945    -0.21560000
opls_145-5    C    0.31721000    0.19107003    0.62532877    -0.20910000
opls_145-6    C    0.35271009    0.20627998    0.64269863    -0.20950000
opls_145-7    C    0.36892993    0.18888989    0.53118082    0.03480000
opls_145-8    C    0.34869003    0.15683009    0.41424932    -0.20950000
opls_145-9    C    0.31411002    0.14197995    0.39827945    -0.20950000
opls_145-10    C    0.47337006    0.23266995    0.54629863    0.00810000
opls_916-11    C    0.03502998    0.01565997    0.35615068    0.16340000
opls_145-12    C    0.05184999    0.00055996    0.20767123    -0.21550000
opls_145-13    C    0.08580004    0.01546007    0.22444932    -0.21550000
opls_145-14    C    0.10474994    0.04703988    0.37309863    0.19620000
opls_145-15    C    0.08818991    0.06235003    0.52092055    -0.21550000
opls_145-16    C    0.05416012    0.04672005    0.51790959    -0.21550000
opls_142-17    C    0.15706001    0.09224995    0.34001918    0.10020000
opls_145-18    C    0.19252993    0.10885993    0.38535068    0.00810000
opls_145-19    C    0.29728986    0.15808994    0.49770959    0.03590000
opls_145-20    C    0.40476991    0.20406986    0.53861096    0.03300000
opls_142-21    C    0.50890998    0.24731994    0.55986027    0.09040000
opls_145-22    C    0.56229005    0.29063997    0.49381918    0.19640000
opls_916-23    C    0.68086000    0.31263994    0.49050959    0.16360000
opls_145-24    C    0.41930007    0.18570003    0.65149041    -0.20900000
opls_145-25    C    0.45325004    0.19988001    0.65560000    -0.21880000
opls_145-26    C    0.45879004    0.25090010    0.42763014    -0.21560000
opls_145-27    C    0.42499006    0.23689004    0.42603014    -0.20950000
opls_145-28    C    0.57723003    0.27395003    0.33992877    -0.21550000
opls_145-29    C    0.61117991    0.28819997    0.33261918    -0.21980000
opls_145-30    C    0.61655999    0.33563990    0.64381918    -0.21550000
opls_145-31    C    0.58274004    0.32217006    0.63664932    -0.21550000
opls_145-32    C    0.85755008    0.06927998    0.30393973    -0.20900000
opls_145-33    C    0.84110011    0.08675002    0.34635068    -0.20900000
opls_145-34    C    0.85813003    0.11947999    0.46846027    0.03550000
opls_145-35    C    0.89186999    0.13380989    0.55198904    -0.21560000
opls_145-36    C    0.90812984    0.11626988    0.51327945    -0.21560000
opls_145-37    C    0.80892995    0.12614007    0.62532877    -0.20910000
opls_145-38    C    0.79371987    0.14642992    0.64269863    -0.20950000
opls_145-39    C    0.81110992    0.18003993    0.53118082    0.03480000
opls_145-40    C    0.84316988    0.19185987    0.41424932    -0.20950000
opls_145-41    C    0.85802007    0.17212999    0.39827945    -0.20920000
opls_145-42    C    0.76733009    0.24070008    0.54629863    0.00810000
opls_916-43    C    0.98434003    0.01937007    0.35615068    0.16340000
opls_145-44    C    0.99943995    0.05128995    0.20767123    -0.21550000
opls_145-45    C    0.98453987    0.07033993    0.22444932    -0.21550000
opls_145-46    C    0.95295998    0.05770991    0.37309863    0.19620000
opls_145-47    C    0.93765001    0.02584000    0.52092055    -0.21550000
opls_145-48    C    0.95327986    0.00743993    0.51790959    -0.21550000
opls_142-49    C    0.90775002    0.06481002    0.34001918    0.10020000
opls_145-50    C    0.89114015    0.08367010    0.38535068    0.00810000
opls_145-51    C    0.84190990    0.13919987    0.49770959    0.03590000
opls_145-52    C    0.79593009    0.20070009    0.53861096    0.03300000
opls_142-53    C    0.75267988    0.26158987    0.55986027    0.09040000
opls_145-54    C    0.70936006    0.27164996    0.49381918    0.19640000
opls_916-55    C    0.68736008    0.36821994    0.49050959    0.16360000
opls_145-56    C    0.81430004    0.23359997    0.65149041    -0.20900000
opls_145-57    C    0.80012003    0.25337009    0.65560000    -0.21880000
opls_145-58    C    0.74909998    0.20788990    0.42763014    -0.21560000
opls_145-59    C    0.76311011    0.18810005    0.42603014    -0.20950000
opls_145-60    C    0.72604997    0.30327999    0.33992877    -0.21550000
opls_145-61    C    0.71180000    0.32297989    0.33261918    -0.21980000
opls_145-62    C    0.66435993    0.28091996    0.64381918    -0.21550000
opls_145-63    C    0.67783005    0.26056989    0.63664932    -0.21550000
opls_145-64    C    0.93071990    0.78826981    0.30393973    -0.20900000
opls_145-65    C    0.91324995    0.75434996    0.34635068    -0.20890000
opls_145-66    C    0.88051993    0.73865001    0.46846027    0.03550000
opls_145-67    C    0.86619007    0.75806006    0.55198904    -0.21560000
opls_145-68    C    0.88372988    0.79185997    0.51327945    -0.21560000
opls_145-69    C    0.87386005    0.68278990    0.62532877    -0.20910000
opls_145-70    C    0.85356991    0.64728985    0.64269863    -0.20950000
opls_145-71    C    0.81996002    0.63106992    0.53118082    0.03480000
opls_145-72    C    0.80814010    0.65131004    0.41424932    -0.20950000
opls_145-73    C    0.82787013    0.68589006    0.39827945    -0.20940000
opls_145-74    C    0.75930007    0.52662997    0.54629863    0.00810000
opls_916-75    C    0.98063000    0.96496996    0.35615068    0.16340000
opls_145-76    C    0.94870993    0.94814983    0.20767123    -0.21540000
opls_145-77    C    0.92966009    0.91419999    0.22444932    -0.21550000
opls_145-78    C    0.94228996    0.89524996    0.37309863    0.19620000
opls_145-79    C    0.97416008    0.91180997    0.52092055    -0.21550000
opls_145-80    C    0.99256002    0.94584002    0.51790959    -0.21550000
opls_142-81    C    0.93518997    0.84294003    0.34001918    0.10020000
opls_145-82    C    0.91632992    0.80746997    0.38535068    0.00810000
opls_145-83    C    0.86079989    0.70270993    0.49770959    0.03590000
opls_145-84    C    0.79930000    0.59523005    0.53861096    0.03300000
opls_142-85    C    0.73841001    0.49108994    0.55986027    0.09040000
opls_145-86    C    0.72835012    0.43771007    0.49381918    0.19640000
opls_916-87    C    0.63178002    0.31913986    0.49050959    0.16360000
opls_145-88    C    0.76639989    0.58070000    0.65149041    -0.20900000
opls_145-89    C    0.74662994    0.54674990    0.65560000    -0.21880000
opls_145-90    C    0.79210998    0.54120999    0.42763014    -0.21560000
opls_145-91    C    0.81190006    0.57500991    0.42603014    -0.20950000
opls_145-92    C    0.69672001    0.42276997    0.33992877    -0.21550000
opls_145-93    C    0.67701997    0.38881988    0.33261918    -0.21980000
opls_145-94    C    0.71907995    0.38343989    0.64381918    -0.21540000
opls_145-95    C    0.73943012    0.41726005    0.63664932    -0.21540000
opls_750-96    N    0.13898007    0.06137003    0.38833973    -0.19290000
opls_750-97    N    0.52787997    0.27914986    0.49338904    -0.19010000
opls_750-98    N    0.93863009    0.07760995    0.38833973    -0.19290000
opls_750-99    N    0.72084988    0.24872996    0.49338904    -0.19010000
opls_750-100    N    0.92239007    0.86102001    0.38833973    -0.19290000
opls_750-101    N    0.75127003    0.47211992    0.49338904    -0.19010000
opls_239-102    N    0.00000000    0.00000000    0.33998904    -0.26240000
opls_239-103    N    0.66667015    0.33333009    0.49432877    -0.22390000
opls_146-104    H    0.30519005    0.20459010    0.69941096    0.22230000
opls_146-105    H    0.36588995    0.23065998    0.73253973    0.22220000
opls_146-106    H    0.46454997    0.18678997    0.75800000    0.22230000
opls_146-107    H    0.47292993    0.27673985    0.34906027    0.22230000
opls_146-108    H    0.41165005    0.25028991    0.33884932    0.09610000
opls_146-109    H    0.40351011    0.16031005    0.75130959    0.07950000
opls_146-110    H    0.35964989    0.14140999    0.32815890    0.10940000
opls_146-111    H    0.29904011    0.11538009    0.29473973    0.10990000
opls_146-112    H    0.25373988    0.09526990    0.67287123    0.22310000
opls_146-113    H    0.19263999    0.06658011    0.60252055    0.22240000
opls_146-114    H    0.26093005    0.18500988    0.26790137    0.21630000
opls_146-115    H    0.19999990    0.15624988    0.20012055    0.09910000
opls_146-116    H    0.10211998    0.08605987    0.66021096    0.22310000
opls_146-117    H    0.04191997    0.05880010    0.63904932    0.22240000
opls_146-118    H    0.03835999    0.97649006    0.07627945    0.22220000
opls_146-119    H    0.09888007    0.00353993    0.10744110    0.07890000
opls_144-120    H    0.51791994    0.23205002    0.64327945    0.10450000
opls_144-121    H    0.14649004    0.10806009    0.25820000    0.09040000
opls_146-122    H    0.57145995    0.33659991    0.75049041    0.09920000
opls_146-123    H    0.63158988    0.36038996    0.76521918    0.21700000
opls_146-124    H    0.56134995    0.25075992    0.20510137    0.22240000
opls_146-125    H    0.62128000    0.27502998    0.20516986    0.22230000
opls_146-126    H    0.79540993    0.10059992    0.69941096    0.22230000
opls_146-127    H    0.76933988    0.13522991    0.73253973    0.22220000
opls_146-128    H    0.81321011    0.27776008    0.75800000    0.22230000
opls_146-129    H    0.72325996    0.19618990    0.34906027    0.22230000
opls_146-130    H    0.74970990    0.16136001    0.33884932    0.09610000
opls_146-131    H    0.83969000    0.24320005    0.75130959    0.07940000
opls_146-132    H    0.85859005    0.21824010    0.32815890    0.10940000
opls_146-133    H    0.88462006    0.18366008    0.29473973    0.10990000
opls_146-134    H    0.90473004    0.15846999    0.67287123    0.22310000
opls_146-135    H    0.93342001    0.12606012    0.60252055    0.22240000
opls_146-136    H    0.81499002    0.07592007    0.26790137    0.21630000
opls_146-137    H    0.84374999    0.04375007    0.20012055    0.09910000
opls_146-138    H    0.91394008    0.01606002    0.66021096    0.22310000
opls_146-139    H    0.94119996    0.98311990    0.63904932    0.22240000
opls_146-140    H    0.02350997    0.06187003    0.07627945    0.22220000
opls_146-141    H    0.99646004    0.09534012    0.10744110    0.07890000
opls_144-142    H    0.76794994    0.28586992    0.64327945    0.10450000
opls_144-143    H    0.89194002    0.03843005    0.25820000    0.09040000
opls_146-144    H    0.66340003    0.23486008    0.75049041    0.09910000
opls_146-145    H    0.63961000    0.27119994    0.76521918    0.21700000
opls_146-146    H    0.74924000    0.31058999    0.20510137    0.22240000
opls_146-147    H    0.72496998    0.34624996    0.20516986    0.22230000
opls_146-148    H    0.89940002    0.69480999    0.69941096    0.22230000
opls_146-149    H    0.86476982    0.63410986    0.73253973    0.22220000
opls_146-150    H    0.72223992    0.53544995    0.75800000    0.22240000
opls_146-151    H    0.80380998    0.52706999    0.34906027    0.22230000
opls_146-152    H    0.83864005    0.58835008    0.33884932    0.09610000
opls_146-153    H    0.75679989    0.59648990    0.75130959    0.07940000
opls_146-154    H    0.78176006    0.64034991    0.32815890    0.10940000
opls_146-155    H    0.81633983    0.70095983    0.29473973    0.10990000
opls_146-156    H    0.84152995    0.74625985    0.67287123    0.22310000
opls_146-157    H    0.87393991    0.80736003    0.60252055    0.22240000
opls_146-158    H    0.92407993    0.73907004    0.26790137    0.21630000
opls_146-159    H    0.95625011    0.80000005    0.20012055    0.09910000
opls_146-160    H    0.98394004    0.89787986    0.66021096    0.22310000
opls_146-161    H    0.01688007    0.95807999    0.63904932    0.22240000
opls_146-162    H    0.93813003    0.96163992    0.07627945    0.22230000
opls_146-163    H    0.90465989    0.90111995    0.10744110    0.07890000
opls_144-164    H    0.71413012    0.48208007    0.64327945    0.10450000
opls_144-165    H    0.96156994    0.85350986    0.25820000    0.09040000
opls_146-166    H    0.76514002    0.42854002    0.75049041    0.09910000
opls_146-167    H    0.72879999    0.36840984    0.76521918    0.21700000
opls_146-168    H    0.68941005    0.43865008    0.20510137    0.22240000
opls_146-169    H    0.65375003    0.37872006    0.20516986    0.22230000
