#======================================================================
# Crystal Data Generated By AuToFF
#----------------------------------------------------------------------

data_AuToFF_phase_1

_cell_length_a                         21.6900
_cell_length_b                         21.6900
_cell_length_c                         3.9400
_cell_angle_alpha                      90.00
_cell_angle_beta                       90.00
_cell_angle_gamma                      120.00
_symmetry_space_group_name_H-M_alt     'P 1'
_symmetry_space_group_IT_number        1

loop_
_space_group_symop_operation_xyz
   'x, y, z'

loop_
   _atom_site_label
   _atom_site_type_symbol
   _atom_site_fract_x
   _atom_site_fract_y
   _atom_site_fract_z
   _atom_site_charge
opls_280-0    C    0.26648999    0.59786979    0.96888071    0.34910000
opls_145-1    C    0.33564013    0.59934019    0.99906091    -0.10530000
opls_142-2    C    0.33868007    0.54000007    0.06982995    0.04890000
opls_916-3    C    0.25122000    0.40732982    0.13394924    0.16800000
opls_700-4    C    0.17986997    0.35744026    0.21211929    0.09000000
opls_145-5    C    0.15118003    0.28707007    0.10620051    -0.16660000
opls_916-6    C    0.19102010    0.26439982    0.91545939    0.16480000
opls_700-7    C    0.26425986    0.31285998    0.86157107    0.08060000
opls_145-8    C    0.29333994    0.38425018    0.96502030    -0.23590000
opls_142-9    C    0.08021000    0.15027984    0.76668020    0.03990000
opls_145-10    C    0.04354014    0.07905999    0.78806091    -0.22030000
opls_280-11    C    0.07790977    0.03500995    0.81967005    0.34890000
opls_148-12    C    0.13153987    0.37888979    0.38736041    -0.44060000
opls_148-13    C    0.31294005    0.28876991    0.71425888    -0.44300000
opls_280-14    C    0.40213024    0.66862009    0.96888071    0.34910000
opls_145-15    C    0.40066003    0.73630024    0.99906091    -0.10530000
opls_142-16    C    0.46000029    0.79868016    0.06982995    0.04890000
opls_916-17    C    0.59267033    0.84389023    0.13394924    0.16800000
opls_700-18    C    0.64255988    0.82243005    0.21211929    0.09000000
opls_145-19    C    0.71293006    0.86411000    0.10620051    -0.16660000
opls_916-20    C    0.73559990    0.92661981    0.91545939    0.16480000
opls_700-21    C    0.68713975    0.95139983    0.86157107    0.08060000
opls_145-22    C    0.61575021    0.90909009    0.96502030    -0.23590000
opls_142-23    C    0.84972022    0.92993006    0.76668020    0.03990000
opls_145-24    C    0.92093989    0.96448005    0.78806091    -0.22030000
opls_280-25    C    0.96498995    0.04290014    0.81967005    0.34890000
opls_148-26    C    0.62111028    0.75265025    0.38736041    -0.44060000
opls_148-27    C    0.71123019    0.02416992    0.71425888    -0.44300000
opls_280-28    C    0.33138023    0.73351011    0.96888071    0.34910000
opls_145-29    C    0.26370011    0.66436010    0.99906091    -0.10530000
opls_142-30    C    0.20132036    0.66132030    0.06982995    0.04890000
opls_916-31    C    0.15611012    0.74877995    0.13394924    0.16800000
opls_700-32    C    0.17756995    0.82013023    0.21211929    0.09000000
opls_145-33    C    0.13588991    0.84881993    0.10620051    -0.16660000
opls_916-34    C    0.07337973    0.80897983    0.91545939    0.16490000
opls_700-35    C    0.04859993    0.73574019    0.86157107    0.08060000
opls_145-36    C    0.09091012    0.70666026    0.96502030    -0.23590000
opls_142-37    C    0.07007025    0.91979010    0.76668020    0.03990000
opls_145-38    C    0.03551998    0.95645996    0.78806091    -0.22030000
opls_280-39    C    0.95709982    0.92208992    0.81967005    0.34900000
opls_148-40    C    0.24734985    0.86845996    0.38736041    -0.44050000
opls_148-41    C    0.97583022    0.68706017    0.71425888    -0.44300000
opls_281-42    O    0.21170011    0.54171003    0.91701015    -0.38920000
opls_281-43    O    0.14137982    0.06285000    0.88427919    -0.34960000
opls_281-44    O    0.45829000    0.66998987    0.91701015    -0.38900000
opls_281-45    O    0.93715008    0.07852976    0.88427919    -0.34940000
opls_281-46    O    0.33000989    0.78830010    0.91701015    -0.38920000
opls_281-47    O    0.92147011    0.85862025    0.88427919    -0.34950000
opls_238-48    N    0.27999019    0.48065996    0.23077919    -0.29450000
opls_238-49    N    0.15659988    0.19307989    0.77857107    -0.34220000
opls_238-50    N    0.51934005    0.79933018    0.23077919    -0.29440000
opls_238-51    N    0.80692008    0.96352019    0.77857107    -0.34220000
opls_238-52    N    0.20066975    0.72000986    0.23077919    -0.29450000
opls_238-53    N    0.03648004    0.84339992    0.77857107    -0.34210000
opls_144-54    H    0.38910989    0.54099986    0.05951015    0.10870000
opls_910-55    H    0.25360004    0.49324987    0.41456091    0.26120000
opls_146-56    H    0.09656984    0.24986997    0.17184010    0.12360000
opls_146-57    H    0.34895010    0.42155995    0.91620051    0.12100000
opls_910-58    H    0.18632985    0.17591004    0.64078934    0.26840000
opls_144-59    H    0.05048993    0.17778024    0.73468020    0.10060000
opls_702-60    H    0.66791991    0.74625015    0.44197970    0.11330000
opls_702-61    H    0.58368011    0.70780006    0.22336041    0.17140000
opls_702-62    H    0.59499983    0.74988993    0.63222081    0.10370000
opls_702-63    H    0.72017006    0.02393994    0.43844924    0.10420000
opls_702-64    H    0.76158986    0.06443006    0.83745939    0.11330000
opls_702-65    H    0.67103000    0.04091015    0.75875127    0.11310000
opls_144-66    H    0.45900028    0.84811029    0.05951015    0.10870000
opls_910-67    H    0.50674984    0.76034985    0.41456091    0.26120000
opls_146-68    H    0.75013011    0.84670005    0.17184010    0.11480000
opls_146-69    H    0.57844012    0.92739015    0.91620051    0.12100000
opls_910-70    H    0.82409012    0.01041999    0.64078934    0.26840000
opls_144-71    H    0.82221983    0.87270983    0.73468020    0.10060000
opls_702-72    H    0.25375011    0.92166988    0.44197970    0.11330000
opls_702-73    H    0.29220006    0.87588007    0.22336041    0.17140000
opls_702-74    H    0.25011003    0.84510988    0.63222081    0.10360000
opls_702-75    H    0.97606022    0.69623016    0.43844924    0.10430000
opls_702-76    H    0.93556996    0.69716020    0.83745939    0.11330000
opls_702-77    H    0.95908995    0.63011996    0.75875127    0.11310000
opls_144-78    H    0.15188983    0.61088985    0.05951015    0.10870000
opls_910-79    H    0.23965012    0.74640028    0.41456091    0.26130000
opls_146-80    H    0.15330005    0.90342998    0.17184010    0.11480000
opls_146-81    H    0.07260978    0.65104990    0.91620051    0.12100000
opls_910-82    H    0.98958003    0.81366997    0.64078934    0.26840000
opls_144-83    H    0.12728977    0.94950993    0.73468020    0.10060000
opls_702-84    H    0.07832998    0.33207997    0.44197970    0.11340000
opls_702-85    H    0.12411983    0.41631987    0.22336041    0.17140000
opls_702-86    H    0.15489014    0.40500019    0.63222081    0.10360000
opls_702-87    H    0.30376972    0.27982990    0.43844924    0.10420000
opls_702-88    H    0.30283999    0.23841027    0.83745939    0.11330000
opls_702-89    H    0.36988006    0.32896989    0.75875127    0.11310000
