#======================================================================
# Crystal Data Generated By AuToFF
#----------------------------------------------------------------------

data_AuToFF_phase_1

_cell_length_a                         30.0314
_cell_length_b                         30.0314
_cell_length_c                         7.0764
_cell_angle_alpha                      90.00
_cell_angle_beta                       90.00
_cell_angle_gamma                      120.11
_symmetry_space_group_name_H-M_alt     'P 1'
_symmetry_space_group_IT_number        1

loop_
_space_group_symop_operation_xyz
   'x, y, z'

loop_
   _atom_site_label
   _atom_site_type_symbol
   _atom_site_fract_x
   _atom_site_fract_y
   _atom_site_fract_z
   _atom_site_charge
opls_700-0    C    0.27946995    0.63424989    0.62939065    0.05620000
opls_145-1    C    0.30166982    0.68830997    0.62746029    -0.16150000
opls_142-2    C    0.22384995    0.59955988    0.64551043    0.01180000
opls_234-3    C    0.10540983    0.58770003    0.78944944    0.47240000
opls_700-4    C    0.05200986    0.54092999    0.80507037    -0.11020000
opls_166-5    C    0.04020987    0.48888998    0.81368069    0.21980000
opls_145-6    C    0.98895983    0.44912977    0.81048980    -0.22190000
opls_182-7    C    0.92693989    0.57221997    0.84472048    0.01280000
opls_142-8    C    0.56716979    0.69069996    0.89959019    -0.05970000
opls_143-9    C    0.58060978    0.73100984    0.78611017    -0.25750000
opls_700-10    C    0.36570990    0.64489993    0.62959980    0.05650000
opls_145-11    C    0.31163972    0.61289976    0.62799022    -0.16150000
opls_142-12    C    0.40047006    0.62417992    0.64567011    0.01550000
opls_234-13    C    0.41247978    0.51776996    0.78939009    0.47240000
opls_700-14    C    0.45917989    0.51116006    0.80495026    -0.11110000
opls_166-15    C    0.51127993    0.55140989    0.81343056    0.21990000
opls_145-16    C    0.55091993    0.53984990    0.81043044    -0.22170000
opls_182-17    C    0.42724005    0.35460006    0.84481940    0.01550000
opls_142-18    C    0.30929003    0.87528003    0.89873947    -0.08620000
opls_143-19    C    0.26921007    0.84823998    0.78427025    -0.25750000
opls_700-20    C    0.35527992    0.72055995    0.62913063    0.05650000
opls_145-21    C    0.38715984    0.69848002    0.62773020    -0.16220000
opls_142-22    C    0.37615985    0.77614010    0.64505963    0.01550000
opls_234-23    C    0.48256974    0.89479985    0.79026058    0.47220000
opls_700-24    C    0.48902014    0.94808008    0.80504070    -0.11090000
opls_166-25    C    0.44860981    0.95959004    0.81329066    0.21990000
opls_145-26    C    0.46003000    0.01076013    0.81035979    -0.22190000
opls_182-27    C    0.64548004    0.07349984    0.84536064    0.01260000
opls_142-28    C    0.12436009    0.43392994    0.89710022    -0.04890000
opls_143-29    C    0.15160992    0.42171980    0.78067944    -0.25750000
opls_700-30    C    0.72053005    0.36575011    0.62939065    0.05630000
opls_145-31    C    0.69832985    0.31169003    0.62746029    -0.16150000
opls_142-32    C    0.77615007    0.40045013    0.64551043    0.01180000
opls_234-33    C    0.89458986    0.41230998    0.78944944    0.47050000
opls_700-34    C    0.94799983    0.45908002    0.80507037    -0.11020000
opls_166-35    C    0.95979013    0.51111002    0.81368069    0.21970000
opls_145-36    C    0.01103998    0.55086985    0.81048980    -0.22190000
opls_182-37    C    0.07306011    0.42778003    0.84472048    0.01290000
opls_142-38    C    0.43282990    0.30931005    0.89959019    -0.06020000
opls_143-39    C    0.41939003    0.26898978    0.78611017    -0.25750000
opls_700-40    C    0.63429013    0.35511008    0.62959980    0.05650000
opls_145-41    C    0.68835978    0.38710986    0.62799022    -0.16150000
opls_142-42    C    0.59952994    0.37582008    0.64567011    0.01360000
opls_234-43    C    0.58751989    0.48223004    0.78939009    0.47240000
opls_700-44    C    0.54082979    0.48884994    0.80495026    -0.11110000
opls_166-45    C    0.48872007    0.44859011    0.81343056    0.22030000
opls_145-46    C    0.44908007    0.46015010    0.81043044    -0.22220000
opls_182-47    C    0.57276994    0.64539994    0.84481940    0.01550000
opls_142-48    C    0.69070997    0.12471997    0.89873947    -0.08620000
opls_143-49    C    0.73078993    0.15176002    0.78427025    -0.25750000
opls_700-50    C    0.64472010    0.27945005    0.62913063    0.05650000
opls_145-51    C    0.61283983    0.30151998    0.62773020    -0.16230000
opls_142-52    C    0.62383982    0.22385990    0.64505963    0.01180000
opls_234-53    C    0.51742995    0.10521016    0.79026058    0.47220000
opls_700-54    C    0.51097986    0.05191992    0.80504070    -0.11060000
opls_166-55    C    0.55139985    0.04040996    0.81329066    0.22030000
opls_145-56    C    0.53997999    0.98923987    0.81035979    -0.22190000
opls_182-57    C    0.35451976    0.92649977    0.84536064    0.01250000
opls_142-58    C    0.87563991    0.56607006    0.89710022    -0.04890000
opls_143-59    C    0.84838989    0.57827981    0.78067944    -0.25750000
opls_700-60    C    0.36574989    0.72052993    0.12940054    0.05630000
opls_145-61    C    0.31168978    0.69832990    0.12746029    -0.16150000
opls_142-62    C    0.40044992    0.77614973    0.14551043    0.01410000
opls_234-63    C    0.41230993    0.89459006    0.28944944    0.47240000
opls_700-64    C    0.45907991    0.94799001    0.30508027    -0.11020000
opls_166-65    C    0.51110972    0.95978982    0.31368069    0.21970000
opls_145-66    C    0.55087012    0.01103997    0.31048980    -0.22190000
opls_182-67    C    0.42777996    0.07305987    0.34472048    0.01290000
opls_142-68    C    0.30930973    0.43282983    0.39959019    -0.06020000
opls_143-69    C    0.26899002    0.41938987    0.28611017    -0.25750000
opls_700-70    C    0.35510988    0.63428992    0.12959980    0.05650000
opls_145-71    C    0.38710985    0.68836001    0.12799022    -0.16150000
opls_142-72    C    0.37581981    0.59952986    0.14568001    0.01350000
opls_234-73    C    0.48222999    0.58752989    0.28939009    0.47240000
opls_700-74    C    0.48885004    0.54082991    0.30496015    -0.11100000
opls_166-75    C    0.44859000    0.48871984    0.31343056    0.22030000
opls_145-76    C    0.46015005    0.44908011    0.31043044    -0.22220000
opls_182-77    C    0.64540010    0.57276002    0.34481940    0.01550000
opls_142-78    C    0.12471991    0.69070997    0.39873947    -0.08620000
opls_143-79    C    0.15175993    0.73079005    0.28427025    -0.25750000
opls_700-80    C    0.27944972    0.64471978    0.12913063    0.05650000
opls_145-81    C    0.30152002    0.61284010    0.12773020    -0.16230000
opls_142-82    C    0.22385989    0.62384004    0.14505963    0.01180000
opls_234-83    C    0.10521004    0.51743007    0.29026058    0.47220000
opls_700-84    C    0.05192003    0.51097992    0.30504070    -0.11100000
opls_166-85    C    0.04042007    0.55139989    0.31329066    0.22030000
opls_145-86    C    0.98923983    0.53998000    0.31035979    -0.22350000
opls_182-87    C    0.92649995    0.35451999    0.34536064    0.01250000
opls_142-88    C    0.56607000    0.87563993    0.39710022    -0.04890000
opls_143-89    C    0.57827977    0.84838971    0.28067944    -0.25750000
opls_700-90    C    0.63425011    0.27947007    0.12940054    0.05620000
opls_145-91    C    0.68830989    0.30167010    0.12746029    -0.16150000
opls_142-92    C    0.59955988    0.22384989    0.14551043    0.01180000
opls_234-93    C    0.58770006    0.10540994    0.28944944    0.47240000
opls_700-94    C    0.54093008    0.05200999    0.30508027    -0.11020000
opls_166-95    C    0.48889994    0.04021018    0.31368069    0.21970000
opls_145-96    C    0.44912988    0.98896003    0.31048980    -0.21980000
opls_182-97    C    0.57221985    0.92693974    0.34472048    0.01280000
opls_142-98    C    0.69069973    0.56716979    0.39959019    -0.06020000
opls_143-99    C    0.73100979    0.58060975    0.28611017    -0.25750000
opls_700-100    C    0.64490011    0.36571008    0.12959980    0.05650000
opls_145-101    C    0.61290014    0.31163999    0.12799022    -0.16150000
opls_142-102    C    0.62418019    0.40047014    0.14568001    0.01550000
opls_234-103    C    0.51777004    0.41248012    0.28939009    0.47240000
opls_700-104    C    0.51115998    0.45918010    0.30496015    -0.11110000
opls_166-105    C    0.55140981    0.51127978    0.31343056    0.21990000
opls_145-106    C    0.53984995    0.55091989    0.31043044    -0.22170000
opls_182-107    C    0.35459990    0.42723998    0.34481940    0.01550000
opls_142-108    C    0.87529008    0.30929003    0.39873947    -0.08620000
opls_143-109    C    0.84824007    0.26920995    0.28427025    -0.25750000
opls_700-110    C    0.72055974    0.35527983    0.12913063    0.05650000
opls_145-111    C    0.69847998    0.38715990    0.12773020    -0.16220000
opls_142-112    C    0.77614011    0.37615996    0.14505963    0.01550000
opls_234-113    C    0.89479995    0.48256993    0.29026058    0.47220000
opls_700-114    C    0.94807997    0.48902008    0.30504070    -0.11100000
opls_166-115    C    0.95958995    0.44861012    0.31329066    0.21990000
opls_145-116    C    0.01075987    0.46003001    0.31035979    -0.22190000
opls_182-117    C    0.07350005    0.64548001    0.34536064    0.01260000
opls_142-118    C    0.43393000    0.12436007    0.39710022    -0.04890000
opls_143-119    C    0.42172004    0.15160990    0.28067944    -0.25740000
opls_750-120    N    0.19308987    0.61609000    0.69486038    -0.15060000
opls_238-121    N    0.14230983    0.57804000    0.71499067    -0.23440000
opls_750-122    N    0.38406985    0.57687985    0.69525041    -0.15060000
opls_238-123    N    0.42220977    0.56439988    0.71532983    -0.24380000
opls_750-124    N    0.42345985    0.80705979    0.69511051    -0.15060000
opls_238-125    N    0.43606977    0.85775989    0.71507970    -0.23470000
opls_750-126    N    0.80691013    0.38391000    0.69486038    -0.14340000
opls_238-127    N    0.85769985    0.42197000    0.71499067    -0.23450000
opls_750-128    N    0.61593995    0.42311977    0.69525041    -0.15080000
opls_238-129    N    0.57778990    0.43560012    0.71532983    -0.23480000
opls_750-130    N    0.57653996    0.19293982    0.69511051    -0.15060000
opls_238-131    N    0.56392989    0.14224011    0.71507970    -0.23470000
opls_750-132    N    0.38391005    0.80691006    0.19486038    -0.14340000
opls_238-133    N    0.42196971    0.85769984    0.21499067    -0.23450000
opls_750-134    N    0.42312005    0.61593988    0.19525041    -0.15080000
opls_238-135    N    0.43559987    0.57778980    0.21532983    -0.24380000
opls_750-136    N    0.19293988    0.57653996    0.19511051    -0.15060000
opls_238-137    N    0.14223979    0.56392989    0.21507970    -0.23480000
opls_750-138    N    0.61608995    0.19308994    0.19486038    -0.15060000
opls_238-139    N    0.57803997    0.14231017    0.21499067    -0.23450000
opls_750-140    N    0.57687997    0.38407013    0.19525041    -0.15060000
opls_238-141    N    0.56439993    0.42220981    0.21532983    -0.24380000
opls_750-142    N    0.80706012    0.42346004    0.19511051    -0.15060000
opls_238-143    N    0.85775988    0.43607011    0.21507970    -0.23480000
opls_236-144    O    0.11395997    0.63138991    0.83350998    -0.46560000
opls_179-145    O    0.91843990    0.51949980    0.82732039    -0.23580000
opls_236-146    O    0.36871986    0.48254991    0.83313973    -0.48010000
opls_179-147    O    0.48008008    0.39871990    0.82627042    -0.23580000
opls_236-148    O    0.51775977    0.88648975    0.83558024    -0.46560000
opls_179-149    O    0.60121014    0.08192003    0.82621955    -0.23710000
opls_236-150    O    0.88604003    0.36861009    0.83350998    -0.48270000
opls_179-151    O    0.08155994    0.48050982    0.82732039    -0.23590000
opls_236-152    O    0.63128016    0.51746010    0.83313973    -0.48280000
opls_179-153    O    0.51992991    0.60128010    0.82627042    -0.23590000
opls_236-154    O    0.48224004    0.11350986    0.83558024    -0.47680000
opls_179-155    O    0.39878989    0.91808998    0.82621955    -0.23660000
opls_236-156    O    0.36860991    0.88603978    0.33350998    -0.48280000
opls_179-157    O    0.48051007    0.08156012    0.32732039    -0.23660000
opls_236-158    O    0.51746002    0.63127982    0.33313973    -0.48040000
opls_179-159    O    0.60127977    0.51992976    0.32627042    -0.23580000
opls_236-160    O    0.11351004    0.48224005    0.33558024    -0.47680000
opls_179-161    O    0.91808981    0.39878996    0.32621955    -0.23660000
opls_236-162    O    0.63138990    0.11395984    0.33350998    -0.46570000
opls_179-163    O    0.51949992    0.91843988    0.32732039    -0.23590000
opls_236-164    O    0.48254978    0.36871979    0.33313973    -0.48010000
opls_179-165    O    0.39872006    0.48007986    0.32627042    -0.23590000
opls_236-166    O    0.88648996    0.51775995    0.33558024    -0.46570000
opls_179-167    O    0.08191985    0.60121004    0.32621955    -0.23660000
opls_146-168    H    0.27665006    0.70470999    0.62981036    0.11850000
opls_144-169    H    0.20963995    0.55846976    0.62234046    0.07980000
opls_910-170    H    0.13306984    0.54053005    0.70076027    0.24880000
opls_146-171    H    0.97911986    0.40919981    0.81085015    0.12860000
opls_185-172    H    0.94126988    0.59209007    0.70946950    0.08360000
opls_185-173    H    0.95555971    0.59220978    0.95594935    0.08010000
opls_144-174    H    0.55089996    0.68844008    0.03896049    0.11610000
opls_144-175    H    0.59612997    0.73289981    0.64586937    0.13510000
opls_144-176    H    0.57642989    0.76332987    0.82965067    0.13380000
opls_146-177    H    0.29519014    0.57143011    0.63077978    0.12180000
opls_144-178    H    0.44153010    0.65126001    0.62226980    0.07760000
opls_910-179    H    0.45971005    0.59280987    0.70082952    0.26810000
opls_146-180    H    0.59091002    0.56994008    0.81071025    0.12680000
opls_185-181    H    0.40727989    0.34877002    0.70965039    0.08350000
opls_185-182    H    0.40750986    0.36371002    0.95540953    0.08010000
opls_144-183    H    0.31139985    0.86109986    0.03791052    0.11650000
opls_144-184    H    0.26741985    0.86200982    0.64416935    0.13530000
opls_144-185    H    0.23695003    0.81146985    0.82690068    0.13380000
opls_146-186    H    0.42864002    0.72355003    0.63016930    0.12050000
opls_144-187    H    0.34922980    0.79018978    0.62129049    0.07700000
opls_910-188    H    0.40768976    0.86678979    0.70042960    0.26810000
opls_146-189    H    0.42984999    0.02043016    0.81073992    0.12860000
opls_185-190    H    0.65125981    0.05915993    0.71060002    0.08190000
opls_185-191    H    0.63649016    0.04485004    0.95670963    0.08010000
opls_144-192    H    0.13849984    0.44979992    0.03689023    0.11610000
opls_144-193    H    0.13796988    0.40673977    0.63984936    0.13510000
opls_144-194    H    0.18849016    0.42647014    0.82242948    0.13380000
opls_146-195    H    0.72334994    0.29529001    0.62981036    0.11860000
opls_144-196    H    0.79035988    0.44153986    0.62234046    0.07990000
opls_910-197    H    0.86692985    0.45947995    0.70076027    0.26810000
opls_146-198    H    0.02088994    0.59079981    0.81085015    0.12770000
opls_185-199    H    0.05873978    0.40790993    0.70946950    0.08350000
opls_185-200    H    0.04443977    0.40778984    0.95594935    0.08020000
opls_144-201    H    0.44910004    0.31155992    0.03896049    0.11610000
opls_144-202    H    0.40387983    0.26709981    0.64586937    0.13510000
opls_144-203    H    0.42357011    0.23667013    0.82965067    0.13390000
opls_146-204    H    0.70480986    0.42856989    0.63077978    0.12040000
opls_144-205    H    0.55846993    0.34875000    0.62226980    0.07630000
opls_910-206    H    0.54028995    0.40719013    0.70082952    0.26810000
opls_146-207    H    0.40908998    0.43005992    0.81071025    0.12680000
opls_185-208    H    0.59272011    0.65122998    0.70965039    0.08350000
opls_185-209    H    0.59248981    0.63628998    0.95540953    0.07960000
opls_144-210    H    0.68861016    0.13891015    0.03791052    0.11630000
opls_144-211    H    0.73258995    0.13798979    0.64416935    0.13530000
opls_144-212    H    0.76304997    0.18853015    0.82690068    0.13380000
opls_146-213    H    0.57136996    0.27644997    0.63016930    0.12210000
opls_144-214    H    0.65078000    0.20980983    0.62129049    0.07980000
opls_910-215    H    0.59231005    0.13320982    0.70042960    0.26820000
opls_146-216    H    0.57015001    0.97956984    0.81073992    0.12630000
opls_185-217    H    0.34873986    0.94084007    0.71060002    0.08190000
opls_185-218    H    0.36350984    0.95514996    0.95670963    0.08010000
opls_144-219    H    0.86150016    0.55020008    0.03689023    0.11610000
opls_144-220    H    0.86202992    0.59325985    0.63984936    0.13510000
opls_144-221    H    0.81150984    0.57352986    0.82242948    0.13380000
opls_146-222    H    0.29528975    0.72334987    0.12981036    0.11850000
opls_144-223    H    0.44152996    0.79035992    0.12234046    0.07700000
opls_910-224    H    0.45947991    0.86692990    0.20076027    0.26810000
opls_146-225    H    0.59080019    0.02089014    0.31085015    0.12770000
opls_185-226    H    0.40790996    0.05873998    0.20946950    0.08350000
opls_185-227    H    0.40779001    0.04444010    0.45594935    0.08010000
opls_144-228    H    0.31155995    0.44910013    0.53896049    0.11620000
opls_144-229    H    0.26709985    0.40387979    0.14586937    0.13510000
opls_144-230    H    0.23667008    0.42357013    0.32965067    0.13380000
opls_146-231    H    0.42856997    0.70481007    0.13077978    0.12040000
opls_144-232    H    0.34874968    0.55846976    0.12226980    0.07630000
opls_910-233    H    0.40718998    0.54028986    0.20082952    0.26810000
opls_146-234    H    0.43006012    0.40909010    0.31071025    0.12680000
opls_185-235    H    0.65123003    0.59271980    0.20965039    0.08350000
opls_185-236    H    0.63628993    0.59249000    0.45540953    0.08020000
opls_144-237    H    0.13890975    0.68860983    0.53791052    0.11630000
opls_144-238    H    0.13798988    0.73258994    0.14418066    0.13530000
opls_144-239    H    0.18853002    0.76305004    0.32690068    0.13380000
opls_146-240    H    0.27644993    0.57137006    0.13016930    0.12210000
opls_144-241    H    0.20980992    0.65078001    0.12129049    0.07980000
opls_910-242    H    0.13321002    0.59230986    0.20042960    0.26810000
opls_146-243    H    0.97956993    0.57015987    0.31073992    0.12860000
opls_185-244    H    0.94084002    0.34873999    0.21060002    0.08190000
opls_185-245    H    0.95514981    0.36350986    0.45671952    0.08010000
opls_144-246    H    0.55019975    0.86149980    0.53689023    0.11610000
opls_144-247    H    0.59325985    0.86202984    0.13984936    0.13510000
opls_144-248    H    0.57352984    0.81150988    0.32242948    0.13390000
opls_146-249    H    0.70470992    0.27665013    0.12981036    0.11850000
opls_144-250    H    0.55847004    0.20964008    0.12234046    0.07980000
opls_910-251    H    0.54053008    0.13307010    0.20076027    0.24880000
opls_146-252    H    0.40919981    0.97910986    0.31085015    0.12770000
opls_185-253    H    0.59209007    0.94127003    0.20946950    0.08350000
opls_185-254    H    0.59220999    0.95555990    0.45594935    0.08010000
opls_144-255    H    0.68844005    0.55089987    0.53896049    0.11610000
opls_144-256    H    0.73289999    0.59612983    0.14586937    0.13520000
opls_144-257    H    0.76332992    0.57642987    0.32965067    0.13380000
opls_146-258    H    0.57143003    0.29518993    0.13077978    0.12180000
opls_144-259    H    0.65125978    0.44152985    0.12226980    0.07760000
opls_910-260    H    0.59281002    0.45971014    0.20082952    0.26810000
opls_146-261    H    0.56993988    0.59090990    0.31071025    0.12680000
opls_185-262    H    0.34876978    0.40727981    0.20965039    0.08360000
opls_185-263    H    0.36371007    0.40751000    0.45540953    0.08010000
opls_144-264    H    0.86109974    0.31139979    0.53791052    0.11610000
opls_144-265    H    0.86201015    0.26742006    0.14418066    0.13520000
opls_144-266    H    0.81146998    0.23694996    0.32690068    0.13380000
opls_146-267    H    0.72355009    0.42863994    0.13016930    0.12050000
opls_144-268    H    0.79019011    0.34923000    0.12129049    0.07710000
opls_910-269    H    0.86678998    0.40769014    0.20042960    0.26810000
opls_146-270    H    0.02043009    0.42985014    0.31073992    0.12860000
opls_185-271    H    0.05915998    0.65126001    0.21060002    0.08190000
opls_185-272    H    0.04485000    0.63648975    0.45671952    0.08010000
opls_144-273    H    0.44980006    0.13849982    0.53689023    0.11610000
opls_144-274    H    0.40674015    0.13797016    0.13984936    0.13510000
opls_144-275    H    0.42647016    0.18849012    0.32242948    0.13380000
