#======================================================================
# Crystal Data Generated By AuToFF
#----------------------------------------------------------------------

data_AuToFF_phase_1

_cell_length_a                         22.5800
_cell_length_b                         22.5800
_cell_length_c                         7.3000
_cell_angle_alpha                      90.00
_cell_angle_beta                       90.00
_cell_angle_gamma                      90.00
_symmetry_space_group_name_H-M_alt     'P 1'
_symmetry_space_group_IT_number        1

loop_
_space_group_symop_operation_xyz
   'x, y, z'

loop_
   _atom_site_label
   _atom_site_type_symbol
   _atom_site_fract_x
   _atom_site_fract_y
   _atom_site_fract_z
   _atom_site_charge
opls_145-0    C    0.40786980    0.83232019    0.55886027    -0.18610000
opls_145-1    C    0.44236980    0.86660009    0.67653014    -0.13850000
opls_145-2    C    0.26929982    0.69327989    0.95056027    -0.12370000
opls_145-3    C    0.59213020    0.16767981    0.55886027    -0.18600000
opls_145-4    C    0.55763020    0.13339991    0.67653014    -0.13850000
opls_145-5    C    0.73070018    0.30672011    0.95056027    -0.12370000
opls_145-6    C    0.16767981    0.40786980    0.55886027    -0.18610000
opls_145-7    C    0.13339991    0.44236980    0.67653014    -0.13850000
opls_145-8    C    0.30672011    0.26929982    0.95056027    -0.12370000
opls_145-9    C    0.83232019    0.59213020    0.55886027    -0.18610000
opls_145-10    C    0.86660009    0.55763020    0.67653014    -0.13850000
opls_145-11    C    0.69327989    0.73070018    0.95056027    -0.12370000
opls_145-12    C    0.59213020    0.83232019    0.44113973    -0.18600000
opls_145-13    C    0.55763020    0.86660009    0.32346986    -0.13850000
opls_145-14    C    0.73070018    0.69327989    0.04943973    -0.12370000
opls_145-15    C    0.40786980    0.16767981    0.44113973    -0.18600000
opls_145-16    C    0.44236980    0.13339991    0.32346986    -0.13850000
opls_145-17    C    0.26929982    0.30672011    0.04943973    -0.12370000
opls_145-18    C    0.83232019    0.40786980    0.44113973    -0.18610000
opls_145-19    C    0.86660009    0.44236980    0.32346986    -0.13850000
opls_145-20    C    0.69327989    0.26929982    0.04943973    -0.12370000
opls_145-21    C    0.16767981    0.59213020    0.44113973    -0.18610000
opls_145-22    C    0.13339991    0.55763020    0.32346986    -0.13850000
opls_145-23    C    0.30672011    0.73070018    0.04943973    -0.12370000
opls_145-24    C    0.09213020    0.66767981    0.44113973    -0.18610000
opls_145-25    C    0.05763020    0.63339991    0.32346986    -0.13850000
opls_145-26    C    0.23070018    0.80672011    0.04943973    -0.12370000
opls_145-27    C    0.90786980    0.33232019    0.44113973    -0.18610000
opls_145-28    C    0.94236980    0.36660009    0.32346986    -0.13850000
opls_145-29    C    0.76929982    0.19327989    0.04943973    -0.12370000
opls_145-30    C    0.33232019    0.09213020    0.44113973    -0.18610000
opls_145-31    C    0.36660009    0.05763020    0.32346986    -0.13850000
opls_145-32    C    0.19327989    0.23070018    0.04943973    -0.12370000
opls_145-33    C    0.66767981    0.90786980    0.44113973    -0.18610000
opls_145-34    C    0.63339991    0.94236980    0.32346986    -0.13850000
opls_145-35    C    0.80672011    0.76929982    0.04943973    -0.12370000
opls_145-36    C    0.90786980    0.66767981    0.55886027    -0.18610000
opls_145-37    C    0.94236980    0.63339991    0.67653014    -0.13850000
opls_145-38    C    0.76929982    0.80672011    0.95056027    -0.12370000
opls_145-39    C    0.09213020    0.33232019    0.55886027    -0.18610000
opls_145-40    C    0.05763020    0.36660009    0.67653014    -0.13850000
opls_145-41    C    0.23070018    0.19327989    0.95056027    -0.12370000
opls_145-42    C    0.66767981    0.09213020    0.55886027    -0.18610000
opls_145-43    C    0.63339991    0.05763020    0.67653014    -0.13850000
opls_145-44    C    0.80672011    0.23070018    0.95056027    -0.12370000
opls_145-45    C    0.33232019    0.90786980    0.55886027    -0.18610000
opls_145-46    C    0.36660009    0.94236980    0.67653014    -0.13850000
opls_145-47    C    0.19327989    0.76929982    0.95056027    -0.12370000
opls_700-48    C    0.42175022    0.92174978    0.74369041    0.07530000
opls_142-49    C    0.32317981    0.82317981    0.20549041    0.11430000
opls_516-50    C    0.96034987    0.46034987    0.12833014    0.15560000
opls_700-51    C    0.57824978    0.07825022    0.74369041    0.07530000
opls_142-52    C    0.67682019    0.17682019    0.20549041    0.11430000
opls_516-53    C    0.03965013    0.53965013    0.12833014    0.15560000
opls_700-54    C    0.07825022    0.42175022    0.74369041    0.07530000
opls_142-55    C    0.17682019    0.32317981    0.20549041    0.11430000
opls_516-56    C    0.53965013    0.96034987    0.12833014    0.15560000
opls_700-57    C    0.92174978    0.57824978    0.74369041    0.07530000
opls_142-58    C    0.82317981    0.67682019    0.20549041    0.11430000
opls_516-59    C    0.46034987    0.03965013    0.12833014    0.15560000
opls_700-60    C    0.57824978    0.92174978    0.25630959    0.07530000
opls_142-61    C    0.67682019    0.82317981    0.79450959    0.11430000
opls_516-62    C    0.03965013    0.46034987    0.87166986    0.15560000
opls_700-63    C    0.42175022    0.07825022    0.25630959    0.07530000
opls_142-64    C    0.32317981    0.17682019    0.79450959    0.11430000
opls_516-65    C    0.96034987    0.53965013    0.87166986    0.15560000
opls_700-66    C    0.92174978    0.42175022    0.25630959    0.07530000
opls_142-67    C    0.82317981    0.32317981    0.79450959    0.11430000
opls_516-68    C    0.46034987    0.96034987    0.87166986    0.15560000
opls_700-69    C    0.07825022    0.57824978    0.25630959    0.07530000
opls_142-70    C    0.17682019    0.67682019    0.79450959    0.11430000
opls_516-71    C    0.53965013    0.03965013    0.87166986    0.15560000
opls_145-72    C    0.64729008    0.14729008    0.50094932    0.20190000
opls_700-73    C    0.78758016    0.28758016    0.90162055    0.04930000
opls_145-74    C    0.35270992    0.85270992    0.50094932    0.20180000
opls_700-75    C    0.21241984    0.71241984    0.90162055    0.04930000
opls_145-76    C    0.85270992    0.64729008    0.50094932    0.20180000
opls_700-77    C    0.71241984    0.78758016    0.90162055    0.04930000
opls_145-78    C    0.14729008    0.35270992    0.50094932    0.20180000
opls_700-79    C    0.28758016    0.21241984    0.90162055    0.04930000
opls_145-80    C    0.35270992    0.14729008    0.49904932    0.20190000
opls_700-81    C    0.21241984    0.28758016    0.09837945    0.04930000
opls_145-82    C    0.64729008    0.85270992    0.49904932    0.20180000
opls_700-83    C    0.78758016    0.71241984    0.09837945    0.04940000
opls_145-84    C    0.14729008    0.64729008    0.49904932    0.20180000
opls_700-85    C    0.28758016    0.78758016    0.09837945    0.04930000
opls_145-86    C    0.85270992    0.35270992    0.49904932    0.20180000
opls_700-87    C    0.71241984    0.21241984    0.09837945    0.04930000
opls_136-88    C    0.00000000    0.42181001    0.00000000    -0.27700000
opls_136-89    C    0.00000000    0.57818999    0.00000000    -0.27710000
opls_136-90    C    0.57818999    0.00000000    0.00000000    -0.27710000
opls_136-91    C    0.42181001    0.00000000    0.00000000    -0.27710000
opls_136-92    C    0.50000000    0.07818999    0.00000000    -0.27710000
opls_136-93    C    0.50000000    0.92181001    0.00000000    -0.27710000
opls_136-94    C    0.92181001    0.50000000    0.00000000    -0.27700000
opls_136-95    C    0.07818999    0.50000000    0.00000000    -0.27710000
opls_136-96    C    0.00000000    0.50000000    0.24832055    -0.27750000
opls_136-97    C    0.50000000    0.00000000    0.24832055    -0.27770000
opls_136-98    C    0.00000000    0.50000000    0.75167945    -0.27760000
opls_136-99    C    0.50000000    0.00000000    0.75167945    -0.27770000
opls_146-100    H    0.42441984    0.78998007    0.51137945    0.10680000
opls_146-101    H    0.48529982    0.84913020    0.71093973    0.09160000
opls_146-102    H    0.28475996    0.64960009    0.91170000    0.10810000
opls_140-103    H    0.03056997    0.39306997    0.07885068    0.10410000
opls_146-104    H    0.57558016    0.21001993    0.51137945    0.10690000
opls_146-105    H    0.51470018    0.15086980    0.71093973    0.09160000
opls_146-106    H    0.71524004    0.35039991    0.91170000    0.10810000
opls_140-107    H    0.96943003    0.60693003    0.07885068    0.10410000
opls_146-108    H    0.21001993    0.42441984    0.51137945    0.10680000
opls_146-109    H    0.15086980    0.48529982    0.71093973    0.09160000
opls_146-110    H    0.35039991    0.28475996    0.91170000    0.10810000
opls_140-111    H    0.60693003    0.03056997    0.07885068    0.10410000
opls_146-112    H    0.78998007    0.57558016    0.51137945    0.10680000
opls_146-113    H    0.84913020    0.51470018    0.71093973    0.09160000
opls_146-114    H    0.64960009    0.71524004    0.91170000    0.10810000
opls_140-115    H    0.39306997    0.96943003    0.07885068    0.10420000
opls_146-116    H    0.57558016    0.78998007    0.48862055    0.10680000
opls_146-117    H    0.51470018    0.84913020    0.28906027    0.09160000
opls_146-118    H    0.71524004    0.64960009    0.08830000    0.10810000
opls_140-119    H    0.96943003    0.39306997    0.92115068    0.10410000
opls_146-120    H    0.42441984    0.21001993    0.48862055    0.10680000
opls_146-121    H    0.48529982    0.15086980    0.28906027    0.09160000
opls_146-122    H    0.28475996    0.35039991    0.08830000    0.10810000
opls_140-123    H    0.03056997    0.60693003    0.92115068    0.10410000
opls_146-124    H    0.78998007    0.42441984    0.48862055    0.10680000
opls_146-125    H    0.84913020    0.48529982    0.28906027    0.09160000
opls_146-126    H    0.64960009    0.28475996    0.08830000    0.10810000
opls_140-127    H    0.39306997    0.03056997    0.92115068    0.10410000
opls_146-128    H    0.21001993    0.57558016    0.48862055    0.10680000
opls_146-129    H    0.15086980    0.51470018    0.28906027    0.09160000
opls_146-130    H    0.35039991    0.71524004    0.08830000    0.10810000
opls_140-131    H    0.60693003    0.96943003    0.92115068    0.10410000
opls_146-132    H    0.07558016    0.71001993    0.48862055    0.10680000
opls_146-133    H    0.01470018    0.65086980    0.28906027    0.09170000
opls_146-134    H    0.21524004    0.85039991    0.08830000    0.10810000
opls_140-135    H    0.46943003    0.10693003    0.92115068    0.10410000
opls_146-136    H    0.92441984    0.28998007    0.48862055    0.10680000
opls_146-137    H    0.98529982    0.34913020    0.28906027    0.09160000
opls_146-138    H    0.78475996    0.14960009    0.08830000    0.10810000
opls_140-139    H    0.53056997    0.89306997    0.92115068    0.10410000
opls_146-140    H    0.28998007    0.07558016    0.48862055    0.10680000
opls_146-141    H    0.34913020    0.01470018    0.28906027    0.09160000
opls_146-142    H    0.14960009    0.21524004    0.08830000    0.10810000
opls_140-143    H    0.89306997    0.46943003    0.92115068    0.10410000
opls_146-144    H    0.71001993    0.92441984    0.48862055    0.10680000
opls_146-145    H    0.65086980    0.98529982    0.28906027    0.09160000
opls_146-146    H    0.85039991    0.78475996    0.08830000    0.10810000
opls_140-147    H    0.10693003    0.53056997    0.92115068    0.10410000
opls_146-148    H    0.92441984    0.71001993    0.51137945    0.10680000
opls_146-149    H    0.98529982    0.65086980    0.71093973    0.09180000
opls_146-150    H    0.78475996    0.85039991    0.91170000    0.10810000
opls_140-151    H    0.53056997    0.10693003    0.07885068    0.10410000
opls_146-152    H    0.07558016    0.28998007    0.51137945    0.10690000
opls_146-153    H    0.01470018    0.34913020    0.71093973    0.09160000
opls_146-154    H    0.21524004    0.14960009    0.91170000    0.10820000
opls_140-155    H    0.46943003    0.89306997    0.07885068    0.10410000
opls_146-156    H    0.71001993    0.07558016    0.51137945    0.10680000
opls_146-157    H    0.65086980    0.01470018    0.71093973    0.09160000
opls_146-158    H    0.85039991    0.21524004    0.91170000    0.10810000
opls_140-159    H    0.10693003    0.46943003    0.07885068    0.10410000
opls_146-160    H    0.28998007    0.92441984    0.51137945    0.10680000
opls_146-161    H    0.34913020    0.98529982    0.71093973    0.09160000
opls_146-162    H    0.14960009    0.78475996    0.91170000    0.10810000
opls_140-163    H    0.89306997    0.53056997    0.07885068    0.10420000
opls_144-164    H    0.35379982    0.85379982    0.14106027    0.10270000
opls_144-165    H    0.64620018    0.14620018    0.14106027    0.10270000
opls_144-166    H    0.14620018    0.35379982    0.14106027    0.10270000
opls_144-167    H    0.85379982    0.64620018    0.14106027    0.10270000
opls_144-168    H    0.64620018    0.85379982    0.85893973    0.10270000
opls_144-169    H    0.35379982    0.14620018    0.85893973    0.10270000
opls_144-170    H    0.85379982    0.35379982    0.85893973    0.10270000
opls_144-171    H    0.14620018    0.64620018    0.85893973    0.10270000
opls_140-172    H    0.97186005    0.52813995    0.33857945    0.11160000
opls_140-173    H    0.02813995    0.47186005    0.33857945    0.11150000
opls_140-174    H    0.47186005    0.97186005    0.33857945    0.11150000
opls_140-175    H    0.52813995    0.02813995    0.33857945    0.11150000
opls_140-176    H    0.02813995    0.52813995    0.66142055    0.11150000
opls_140-177    H    0.97186005    0.47186005    0.66142055    0.11160000
opls_140-178    H    0.52813995    0.97186005    0.66142055    0.11150000
opls_140-179    H    0.47186005    0.02813995    0.66142055    0.11150000
opls_750-180    N    0.31910983    0.81910983    0.38950959    -0.31810000
opls_750-181    N    0.68089017    0.18089017    0.38950959    -0.31800000
opls_750-182    N    0.18089017    0.31910983    0.38950959    -0.31810000
opls_750-183    N    0.81910983    0.68089017    0.38950959    -0.31810000
opls_750-184    N    0.68089017    0.81910983    0.61049041    -0.32080000
opls_750-185    N    0.31910983    0.18089017    0.61049041    -0.32070000
opls_750-186    N    0.81910983    0.31910983    0.61049041    -0.32070000
opls_750-187    N    0.18089017    0.68089017    0.61049041    -0.32080000
