#======================================================================
# Crystal Data Generated By AuToFF
#----------------------------------------------------------------------

data_AuToFF_phase_1

_cell_length_a                         24.7918
_cell_length_b                         24.9320
_cell_length_c                         7.4281
_cell_angle_alpha                      93.93
_cell_angle_beta                       91.73
_cell_angle_gamma                      60.36
_symmetry_space_group_name_H-M_alt     'P 1'
_symmetry_space_group_IT_number        1

loop_
_space_group_symop_operation_xyz
   'x, y, z'

loop_
   _atom_site_label
   _atom_site_type_symbol
   _atom_site_fract_x
   _atom_site_fract_y
   _atom_site_fract_z
   _atom_site_charge
opls_716-0    C    0.53346988    0.81188021    0.97842010    -0.05070000
opls_716-1    C    0.53232028    0.75637012    0.97754973    -0.05070000
opls_716-2    C    0.65170028    0.72372991    0.97070952    -0.10930000
opls_716-3    C    0.71592998    0.69041016    0.97465927    -0.10990000
opls_716-4    C    0.83541012    0.65562992    0.00343022    -0.05070000
opls_716-5    C    0.83260996    0.60088029    0.99943055    -0.05070000
opls_700-6    C    0.89008006    0.66423997    0.02732032    0.09180000
opls_700-7    C    0.88390023    0.53642980    0.00803983    0.08780000
opls_145-8    C    0.89037998    0.71600000    0.96059968    -0.14170000
opls_145-9    C    0.94365022    0.62221980    0.11926969    -0.11610000
opls_145-10    C    0.99576983    0.62940000    0.13551939    -0.11380000
opls_700-11    C    0.99622986    0.68036001    0.06544005    0.08080000
opls_145-12    C    0.94213029    0.72393000    0.97924999    -0.11360000
opls_145-13    C    0.94327001    0.51672031    0.93490945    -0.10700000
opls_145-14    C    0.87466008    0.49134000    0.08611044    -0.14170000
opls_145-15    C    0.92291011    0.43064995    0.09585054    -0.11390000
opls_700-16    C    0.98251006    0.41207010    0.02768062    0.07780000
opls_145-17    C    0.99171001    0.45651008    0.94659002    -0.12600000
opls_142-18    C    0.03310003    0.34816989    0.03723990    0.03200000
opls_142-19    C    0.05175030    0.68668977    0.08670013    0.03230000
opls_145-20    C    0.11154998    0.73245981    0.02174993    0.22270000
opls_145-21    C    0.13432998    0.26885027    0.95859040    0.22510000
opls_145-22    C    0.19612034    0.25756003    0.95869025    -0.17450000
opls_145-23    C    0.12358020    0.21799026    0.94130975    -0.17330000
opls_145-24    C    0.17086001    0.67958011    0.03718997    -0.15630000
opls_145-25    C    0.10737980    0.79058006    0.00547999    -0.16890000
opls_700-26    C    0.48175011    0.87644008    0.98000027    0.08870000
opls_145-27    C    0.49080004    0.92410969    0.06417969    -0.11690000
opls_145-28    C    0.44367006    0.98558002    0.07125064    -0.11380000
opls_700-29    C    0.38515007    0.00248010    0.99418940    0.07780000
opls_145-30    C    0.37634992    0.95548018    0.90516018    -0.11410000
opls_145-31    C    0.42363029    0.89405987    0.89717972    -0.11120000
opls_700-32    C    0.47908018    0.74535994    0.98494994    0.08880000
opls_145-33    C    0.42248992    0.78673975    0.07423016    -0.11410000
opls_145-34    C    0.37291021    0.77530992    0.06999028    -0.11380000
opls_700-35    C    0.37789007    0.72140003    0.97908941    0.08080000
opls_145-36    C    0.43530019    0.67816016    0.89910938    -0.11380000
opls_145-37    C    0.48463980    0.68997028    0.90168947    -0.15890000
opls_142-38    C    0.32479010    0.71084999    0.96526057    0.03230000
opls_142-39    C    0.33560022    0.06719996    0.00862008    0.03200000
opls_145-40    C    0.23512012    0.14646014    0.94094945    0.22270000
opls_145-41    C    0.24587020    0.19735030    0.95239927    -0.15630000
opls_145-42    C    0.17335016    0.15780026    0.93039970    -0.17150000
opls_145-43    C    0.21987014    0.74308993    0.02457021    0.22890000
opls_145-44    C    0.16064995    0.79600007    0.01100990    -0.16890000
opls_145-45    C    0.22427993    0.68470968    0.03787952    -0.15970000
opls_716-46    C    0.59373994    0.78662992    0.49230022    -0.05070000
opls_716-47    C    0.59431020    0.73022987    0.46622946    -0.05070000
opls_716-48    C    0.71303995    0.70081992    0.48523062    -0.10990000
opls_716-49    C    0.77721013    0.66776024    0.49736998    -0.10990000
opls_716-50    C    0.89764998    0.63007981    0.53633984    -0.05070000
opls_716-51    C    0.89386016    0.57603010    0.50745014    -0.05070000
opls_700-52    C    0.95283007    0.63776982    0.56624970    0.08860000
opls_700-53    C    0.94352997    0.51043993    0.49498961    0.08870000
opls_145-54    C    0.95158999    0.69170001    0.51086957    -0.15280000
opls_145-55    C    0.00784990    0.59400031    0.64948047    -0.11390000
opls_145-56    C    0.05970996    0.60178997    0.66532939    -0.11390000
opls_700-57    C    0.05919025    0.65396003    0.60036974    0.07780000
opls_145-58    C    0.00331986    0.69969023    0.52740939    -0.11380000
opls_145-59    C    0.00314994    0.48968007    0.42141932    -0.11390000
opls_145-60    C    0.93100021    0.46510995    0.55616954    -0.11690000
opls_145-61    C    0.97670995    0.40312007    0.55480933    -0.11380000
opls_700-62    C    0.03707980    0.38339023    0.49120989    0.07810000
opls_145-63    C    0.04895017    0.42774991    0.42067984    -0.11410000
opls_142-64    C    0.08570001    0.31872001    0.50219955    0.03200000
opls_142-65    C    0.11571994    0.65898015    0.60674034    0.03330000
opls_145-66    C    0.17432004    0.70433988    0.52328961    0.22530000
opls_145-67    C    0.18775984    0.23748016    0.44746984    0.22740000
opls_145-68    C    0.24945015    0.22579012    0.46780962    -0.16600000
opls_145-69    C    0.17669997    0.18686988    0.42605997    -0.17320000
opls_145-70    C    0.23329006    0.65040991    0.50647991    -0.16620000
opls_145-71    C    0.17066000    0.76281003    0.52491026    -0.17140000
opls_700-72    C    0.54017992    0.85021002    0.50516018    0.08920000
opls_145-73    C    0.54498025    0.89848985    0.60285942    -0.14120000
opls_145-74    C    0.49492981    0.95854023    0.61695004    -0.11400000
opls_700-75    C    0.43758999    0.97348985    0.53427928    0.07780000
opls_145-76    C    0.43271028    0.92586989    0.43426038    -0.11380000
opls_145-77    C    0.48308009    0.86617021    0.41831026    -0.11380000
opls_700-78    C    0.54158994    0.71807014    0.45723018    0.08780000
opls_145-79    C    0.48456979    0.75778023    0.54644023    -0.11050000
opls_145-80    C    0.43483001    0.74670021    0.53327936    -0.11380000
opls_700-81    C    0.44014009    0.69388979    0.43429952    0.08790000
opls_145-82    C    0.49767991    0.65252001    0.35117939    -0.11760000
opls_145-83    C    0.54712996    0.66433990    0.36215961    -0.15280000
opls_142-84    C    0.38719011    0.68288006    0.42024937    0.03330000
opls_142-85    C    0.38575019    0.03713005    0.54909049    0.03210000
opls_145-86    C    0.28725001    0.11497014    0.46027042    0.22520000
opls_145-87    C    0.29843998    0.16557021    0.47642971    -0.15630000
opls_145-88    C    0.22591979    0.12655028    0.43010957    -0.16870000
opls_145-89    C    0.28340990    0.71329013    0.50026044    0.22750000
opls_145-90    C    0.22441998    0.76712990    0.51789059    -0.17210000
opls_145-91    C    0.28701026    0.65471986    0.49452946    -0.15250000
opls_633-92    S    0.60819994    0.80480025    0.97208053    0.08520000
opls_633-93    S    0.60572012    0.68798998    0.96432947    0.08630000
opls_633-94    S    0.76344013    0.72451009    0.98263973    0.08630000
opls_633-95    S    0.75766016    0.60909016    0.97296035    0.08460000
opls_633-96    S    0.66762976    0.78188022    0.50691982    0.08580000
opls_633-97    S    0.66884015    0.66330985    0.44892047    0.08460000
opls_633-98    S    0.82576005    0.70032001    0.53394057    0.08490000
opls_633-99    S    0.81819991    0.58638009    0.47779937    0.08630000
opls_750-100    N    0.05683014    0.72906978    0.01096942    -0.24790000
opls_750-101    N    0.08599985    0.33021029    0.96154967    -0.24790000
opls_750-102    N    0.28281006    0.08475023    0.93017974    -0.24800000
opls_750-103    N    0.27163990    0.75147004    0.03282055    -0.24700000
opls_750-104    N    0.11918021    0.70178993    0.52823928    -0.24900000
opls_750-105    N    0.14067003    0.29909023    0.43909940    -0.24620000
opls_750-106    N    0.33537007    0.05347987    0.45804928    -0.24880000
opls_750-107    N    0.33561006    0.72096995    0.50124012    -0.24970000
opls_146-108    H    0.84973014    0.75068015    0.88904002    0.10170000
opls_146-109    H    0.94446005    0.58326982    0.18205004    0.09100000
opls_146-110    H    0.03695008    0.59504996    0.20618978    0.08330000
opls_146-111    H    0.94114003    0.76428020    0.92403989    0.08830000
opls_146-112    H    0.95159021    0.54932012    0.86488004    0.09280000
opls_146-113    H    0.82922989    0.50355989    0.14330958    0.15680000
opls_146-114    H    0.91422009    0.39688001    0.15900062    0.07990000
opls_146-115    H    0.03741997    0.44310015    0.88908995    0.11920000
opls_144-116    H    0.02336994    0.31661995    0.11466008    0.04920000
opls_144-117    H    0.08937021    0.65243979    0.17345964    0.04920000
opls_146-118    H    0.20479030    0.29690003    0.96841956    0.06940000
opls_146-119    H    0.07589010    0.22562004    0.93171943    0.11880000
opls_146-120    H    0.17551017    0.63351982    0.04564003    0.10870000
opls_146-121    H    0.06149017    0.83187992    0.99308018    0.07190000
opls_146-122    H    0.53486993    0.91312003    0.13217958    0.11880000
opls_146-123    H    0.45210001    0.02117011    0.14130975    0.11940000
opls_146-124    H    0.33151030    0.96764995    0.84048930    0.09000000
opls_146-125    H    0.41475027    0.85937997    0.82376056    0.13270000
opls_146-126    H    0.41665988    0.82884998    0.14938062    0.12880000
opls_146-127    H    0.32912972    0.80860017    0.13881062    0.09000000
opls_146-128    H    0.44090016    0.63526031    0.82903004    0.11940000
opls_146-129    H    0.52766001    0.65601010    0.83046987    0.15680000
opls_144-130    H    0.33249008    0.66712994    0.88833023    0.05150000
opls_144-131    H    0.34605024    0.09986981    0.09439991    0.04900000
opls_146-132    H    0.29353006    0.18986038    0.95177988    0.11800000
opls_146-133    H    0.16469015    0.11846008    0.91770977    0.06940000
opls_146-134    H    0.15725007    0.84131985    0.99885030    0.06940000
opls_146-135    H    0.26980983    0.64306011    0.05316978    0.10870000
opls_146-136    H    0.90989018    0.72761991    0.44622972    0.10170000
opls_146-137    H    0.01091018    0.55268008    0.70375003    0.07420000
opls_146-138    H    0.10194989    0.56616004    0.72883977    0.08330000
opls_146-139    H    0.00108024    0.74150989    0.47893963    0.11450000
opls_146-140    H    0.01453013    0.52231015    0.36356031    0.07600000
opls_146-141    H    0.88536015    0.47848990    0.61412976    0.11930000
opls_146-142    H    0.96575029    0.36951996    0.60881980    0.10870000
opls_146-143    H    0.09511025    0.41316993    0.36456967    0.08800000
opls_144-144    H    0.07273978    0.28828028    0.57333954    0.04920000
opls_144-145    H    0.15584019    0.62303008    0.68307020    0.04130000
opls_146-146    H    0.25845993    0.26490996    0.48132000    0.08800000
opls_146-147    H    0.12943005    0.19469999    0.40061938    0.09000000
opls_146-148    H    0.23717026    0.60432985    0.49895015    0.10870000
opls_146-149    H    0.12509024    0.80505998    0.53811027    0.07190000
opls_146-150    H    0.58825982    0.88940024    0.67265943    0.11880000
opls_146-151    H    0.50029003    0.99477996    0.69539983    0.11940000
opls_146-152    H    0.38891022    0.93620988    0.36549942    0.10980000
opls_146-153    H    0.47812006    0.83109015    0.33319029    0.08000000
opls_146-154    H    0.47913029    0.79807995    0.63078968    0.10020000
opls_146-155    H    0.39086993    0.77907014    0.60299031    0.08930000
opls_146-156    H    0.50367002    0.61054985    0.27391979    0.11950000
opls_146-157    H    0.59066019    0.63107989    0.29181983    0.11430000
opls_144-158    H    0.39375995    0.64117982    0.33365045    0.04130000
opls_144-159    H    0.39260981    0.07042035    0.64388983    0.04910000
opls_146-160    H    0.34610989    0.15773998    0.49125982    0.15680000
opls_146-161    H    0.21697994    0.08743992    0.41330931    0.08290000
opls_146-162    H    0.22137029    0.81274985    0.52109006    0.06940000
opls_146-163    H    0.33233991    0.61194010    0.48392978    0.07990000
