#======================================================================
# Crystal Data Generated By AuToFF
#----------------------------------------------------------------------

data_AuToFF_phase_1

_cell_length_a                         30.3000
_cell_length_b                         30.3000
_cell_length_c                         3.4000
_cell_angle_alpha                      90.00
_cell_angle_beta                       90.00
_cell_angle_gamma                      120.00
_symmetry_space_group_name_H-M_alt     'P 1'
_symmetry_space_group_IT_number        1

loop_
_space_group_symop_operation_xyz
   'x, y, z'

loop_
   _atom_site_label
   _atom_site_type_symbol
   _atom_site_fract_x
   _atom_site_fract_y
   _atom_site_fract_z
   _atom_site_charge
opls_750-0    N    0.80760011    0.41134015    0.50000000    -0.27110000
opls_750-1    N    0.58866007    0.39626007    0.50000000    -0.27110000
opls_750-2    N    0.60374002    0.19240017    0.50000000    -0.27110000
opls_750-3    N    0.19239989    0.58865985    0.50000000    -0.27110000
opls_750-4    N    0.41133993    0.60373993    0.50000000    -0.27110000
opls_750-5    N    0.39625998    0.80759983    0.50000000    -0.27110000
opls_142-6    C    0.76900994    0.41868984    0.50000000    0.01480000
opls_145-7    C    0.67532004    0.38304008    0.50000000    -0.08070000
opls_700-8    C    0.71674985    0.37473995    0.50000000    0.06400000
opls_145-9    C    0.55760999    0.42007014    0.50000000    0.22350000
opls_700-10    C    0.50322012    0.39692011    0.50000000    0.08260000
opls_145-11    C    0.48225989    0.42957985    0.50000000    -0.03950000
opls_700-12    C    0.51202006    0.48318996    0.50000000    0.07460000
opls_145-13    C    0.56503013    0.50388997    0.50000000    -0.10870000
opls_145-14    C    0.58663994    0.47300001    0.50000000    -0.13880000
opls_148-15    C    0.53456018    0.66022003    0.50000000    -0.35690000
opls_142-16    C    0.58131023    0.35032013    0.50000000    0.01480000
opls_145-17    C    0.61696006    0.29227986    0.50000000    -0.08070000
opls_700-18    C    0.62526017    0.34201010    0.50000000    0.06400000
opls_145-19    C    0.57993010    0.13754008    0.50000000    0.22350000
opls_700-20    C    0.60307998    0.10629990    0.50000000    0.08260000
opls_145-21    C    0.57041981    0.05267988    0.50000000    -0.03950000
opls_700-22    C    0.51681013    0.02883017    0.50000000    0.07460000
opls_145-23    C    0.49610996    0.06114006    0.50000000    -0.10870000
opls_145-24    C    0.52699990    0.11364006    0.50000000    -0.13880000
opls_148-25    C    0.33977990    0.87434000    0.50000000    -0.35690000
opls_142-26    C    0.64968016    0.23099003    0.50000000    0.01480000
opls_145-27    C    0.70771990    0.32468007    0.50000000    -0.08070000
opls_700-28    C    0.65798999    0.28324994    0.50000000    0.06400000
opls_145-29    C    0.86246010    0.44239016    0.50000000    0.22350000
opls_700-30    C    0.89369989    0.49677999    0.50000000    0.08260000
opls_145-31    C    0.94731978    0.51773990    0.50000000    -0.03950000
opls_700-32    C    0.97116980    0.48797987    0.50000000    0.07460000
opls_145-33    C    0.93885990    0.43496997    0.50000000    -0.10860000
opls_145-34    C    0.88635983    0.41335992    0.50000000    -0.13880000
opls_148-35    C    0.12565992    0.46543997    0.50000000    -0.35680000
opls_142-36    C    0.23099006    0.58131016    0.50000000    0.01480000
opls_145-37    C    0.32467996    0.61695992    0.50000000    -0.08060000
opls_700-38    C    0.28325015    0.62526005    0.50000000    0.06400000
opls_145-39    C    0.44239001    0.57992986    0.50000000    0.22350000
opls_700-40    C    0.49677988    0.60307989    0.50000000    0.08260000
opls_145-41    C    0.51774011    0.57042015    0.50000000    -0.03950000
opls_700-42    C    0.48797994    0.51681004    0.50000000    0.07460000
opls_145-43    C    0.43496987    0.49611003    0.50000000    -0.10870000
opls_145-44    C    0.41336006    0.52699999    0.50000000    -0.13880000
opls_148-45    C    0.46543982    0.33977997    0.50000000    -0.35680000
opls_142-46    C    0.41869010    0.64967987    0.50000000    0.01480000
opls_145-47    C    0.38303994    0.70772014    0.50000000    -0.08070000
opls_700-48    C    0.37473983    0.65798990    0.50000000    0.06410000
opls_145-49    C    0.42006990    0.86245992    0.50000000    0.22360000
opls_700-50    C    0.39692002    0.89370010    0.50000000    0.08260000
opls_145-51    C    0.42958019    0.94732012    0.50000000    -0.03950000
opls_700-52    C    0.48318987    0.97116983    0.50000000    0.07460000
opls_145-53    C    0.50389004    0.93885994    0.50000000    -0.10870000
opls_145-54    C    0.47300010    0.88635994    0.50000000    -0.13880000
opls_148-55    C    0.66022010    0.12566000    0.50000000    -0.35680000
opls_142-56    C    0.35031984    0.76900997    0.50000000    0.01480000
opls_145-57    C    0.29228010    0.67531993    0.50000000    -0.08070000
opls_700-58    C    0.34201001    0.71675006    0.50000000    0.06400000
opls_145-59    C    0.13753990    0.55760984    0.50000000    0.22360000
opls_700-60    C    0.10630011    0.50322001    0.50000000    0.08260000
opls_145-61    C    0.05267989    0.48226010    0.50000000    -0.03950000
opls_700-62    C    0.02883020    0.51202013    0.50000000    0.07460000
opls_145-63    C    0.06114010    0.56503003    0.50000000    -0.10870000
opls_145-64    C    0.11364017    0.58664008    0.50000000    -0.13880000
opls_148-65    C    0.87434008    0.53456003    0.50000000    -0.35680000
opls_144-66    H    0.77547980    0.45912989    0.50000000    0.02960000
opls_146-67    H    0.68208999    0.42358988    0.50000000    0.05010000
opls_146-68    H    0.43916004    0.41272998    0.50000000    0.05010000
opls_146-69    H    0.59129996    0.54699002    0.50000000    0.05010000
opls_146-70    H    0.63002004    0.49258991    0.50000000    0.05010000
opls_702-71    H    0.54232998    0.67485005    0.18432059    0.10200000
opls_702-72    H    0.57171017    0.66778008    0.64339118    0.10200000
opls_702-73    H    0.51787998    0.68074017    0.67227941    0.10200000
opls_144-74    H    0.54086997    0.31634984    0.50000000    0.02960000
opls_146-75    H    0.57641012    0.25850010    0.50000000    0.05010000
opls_146-76    H    0.58727015    0.02643007    0.50000000    0.05010000
opls_146-77    H    0.45301012    0.04431001    0.50000000    0.05010000
opls_146-78    H    0.50741002    0.13742994    0.50000000    0.05020000
opls_702-79    H    0.31832004    0.83230014    0.58440882    0.10200000
opls_702-80    H    0.32742014    0.87919012    0.19397059    0.10200000
opls_702-81    H    0.33089015    0.89706016    0.72162059    0.10200000
opls_144-82    H    0.68365005    0.22451989    0.50000000    0.02960000
opls_146-83    H    0.74149989    0.31791001    0.50000000    0.05010000
opls_146-84    H    0.97357014    0.56083995    0.50000000    0.05010000
opls_146-85    H    0.95568992    0.40869996    0.50000000    0.05010000
opls_146-86    H    0.86256994    0.36998015    0.50000000    0.05010000
opls_702-87    H    0.12272987    0.44977986    0.19030882    0.10200000
opls_702-88    H    0.10159005    0.43273984    0.70979118    0.10200000
opls_702-89    H    0.16711991    0.48555996    0.59990000    0.10200000
opls_144-90    H    0.22452020    0.54087011    0.50000000    0.02960000
opls_146-91    H    0.31791001    0.57641012    0.50000000    0.05010000
opls_146-92    H    0.56083996    0.58727002    0.50000000    0.05010000
opls_146-93    H    0.40870004    0.45300998    0.50000000    0.05010000
opls_146-94    H    0.36997996    0.50741009    0.50000000    0.05010000
opls_702-95    H    0.48376997    0.31886007    0.64339118    0.10210000
opls_702-96    H    0.45437987    0.32593995    0.18432059    0.10200000
opls_702-97    H    0.42992988    0.33183006    0.67227941    0.10200000
opls_144-98    H    0.45913003    0.68365016    0.50000000    0.02960000
opls_146-99    H    0.42358988    0.74149990    0.50000000    0.05010000
opls_146-100    H    0.41272985    0.97356993    0.50000000    0.05010000
opls_146-101    H    0.54698988    0.95568999    0.50000000    0.05010000
opls_146-102    H    0.49258998    0.86257006    0.50000000    0.05010000
opls_702-103    H    0.67633020    0.14016007    0.19397059    0.10200000
opls_702-104    H    0.66723009    0.09327008    0.58440882    0.10200000
opls_702-105    H    0.67980001    0.15801981    0.72162059    0.10200000
opls_144-106    H    0.31634995    0.77548011    0.50000000    0.02960000
opls_146-107    H    0.25850011    0.68208999    0.50000000    0.05010000
opls_146-108    H    0.02642986    0.43916005    0.50000000    0.05020000
opls_146-109    H    0.04431008    0.59130004    0.50000000    0.05010000
opls_146-110    H    0.13743006    0.63001985    0.50000000    0.05010000
opls_702-111    H    0.84063010    0.52068991    0.70979118    0.10200000
opls_702-112    H    0.86176992    0.53772993    0.19030882    0.10200000
opls_702-113    H    0.90615996    0.57350012    0.59990000    0.10200000
