#======================================================================
# Crystal Data Generated By AuToFF
#----------------------------------------------------------------------

data_AuToFF_phase_1

_cell_length_a                         30.8700
_cell_length_b                         30.8700
_cell_length_c                         60.2900
_cell_angle_alpha                      90.00
_cell_angle_beta                       90.00
_cell_angle_gamma                      90.00
_symmetry_space_group_name_H-M_alt     'P 1'
_symmetry_space_group_IT_number        1

loop_
_space_group_symop_operation_xyz
   'x, y, z'

loop_
   _atom_site_label
   _atom_site_type_symbol
   _atom_site_fract_x
   _atom_site_fract_y
   _atom_site_fract_z
   _atom_site_charge
opls_145-0    C    0.53917007    0.86678005    0.19707000    -0.13260000
opls_145-1    C    0.53924004    0.90196016    0.21165998    -0.07980000
opls_145-2    C    0.03928993    0.23223000    0.61779997    -0.07380000
opls_145-3    C    0.03917007    0.36678005    0.69707000    -0.13260000
opls_145-4    C    0.03924004    0.40196016    0.71165998    -0.07980000
opls_145-5    C    0.53928993    0.73223000    0.11779997    -0.07380000
opls_145-6    C    0.96082993    0.63321995    0.69707000    -0.13250000
opls_145-7    C    0.96075996    0.59803984    0.71165998    -0.07980000
opls_145-8    C    0.46071007    0.26777000    0.11779997    -0.07380000
opls_145-9    C    0.46082993    0.13321995    0.19707000    -0.13260000
opls_145-10    C    0.46075996    0.09803984    0.21165998    -0.07980000
opls_145-11    C    0.96071007    0.76777000    0.61779997    -0.07380000
opls_145-12    C    0.13321995    0.03917007    0.44707000    -0.13260000
opls_145-13    C    0.09803984    0.03924004    0.46165998    -0.07980000
opls_145-14    C    0.76777000    0.53928993    0.86779997    -0.07380000
opls_145-15    C    0.63321995    0.53917007    0.94707000    -0.13260000
opls_145-16    C    0.59803984    0.53924004    0.96165998    -0.07980000
opls_145-17    C    0.26777000    0.03928993    0.36779997    -0.07380000
opls_145-18    C    0.36678005    0.46082993    0.94707000    -0.13260000
opls_145-19    C    0.40196016    0.46075996    0.96165998    -0.07980000
opls_145-20    C    0.73223000    0.96071007    0.36779997    -0.07380000
opls_145-21    C    0.86678005    0.96082993    0.44707000    -0.13250000
opls_145-22    C    0.90196016    0.96075996    0.46165998    -0.07980000
opls_145-23    C    0.23223000    0.46071007    0.86779997    -0.07380000
opls_145-24    C    0.96082993    0.86678005    0.55293000    -0.13260000
opls_145-25    C    0.96075996    0.90196016    0.53834002    -0.07980000
opls_145-26    C    0.46071007    0.23223000    0.13220003    -0.07380000
opls_145-27    C    0.46082993    0.36678005    0.05293000    -0.13250000
opls_145-28    C    0.46075996    0.40196016    0.03834002    -0.07980000
opls_145-29    C    0.96071007    0.73223000    0.63220003    -0.07380000
opls_145-30    C    0.53917007    0.63321995    0.05293000    -0.13260000
opls_145-31    C    0.53924004    0.59803984    0.03834002    -0.07980000
opls_145-32    C    0.03928993    0.26777000    0.63220003    -0.07380000
opls_145-33    C    0.03917007    0.13321995    0.55293000    -0.13260000
opls_145-34    C    0.03924004    0.09803984    0.53834002    -0.07980000
opls_145-35    C    0.53928993    0.76777000    0.13220003    -0.07380000
opls_145-36    C    0.36678005    0.03917007    0.30293000    -0.13250000
opls_145-37    C    0.40196016    0.03924004    0.28834002    -0.07980000
opls_145-38    C    0.73223000    0.53928993    0.88220003    -0.07380000
opls_145-39    C    0.86678005    0.53917007    0.80293000    -0.13260000
opls_145-40    C    0.90196016    0.53924004    0.78834002    -0.07980000
opls_145-41    C    0.23223000    0.03928993    0.38220003    -0.07380000
opls_145-42    C    0.13321995    0.46082993    0.80293000    -0.13260000
opls_145-43    C    0.09803984    0.46075996    0.78834002    -0.07980000
opls_145-44    C    0.76777000    0.96071007    0.38220003    -0.07370000
opls_145-45    C    0.63321995    0.96082993    0.30293000    -0.13260000
opls_145-46    C    0.59803984    0.96075996    0.28834002    -0.07980000
opls_145-47    C    0.26777000    0.46071007    0.88220003    -0.07380000
opls_145-48    C    0.46082993    0.63321995    0.05293000    -0.13260000
opls_145-49    C    0.46075996    0.59803984    0.03834002    -0.07980000
opls_145-50    C    0.96071007    0.26777000    0.63220003    -0.07380000
opls_145-51    C    0.96082993    0.13321995    0.55293000    -0.13260000
opls_145-52    C    0.96075996    0.09803984    0.53834002    -0.07980000
opls_145-53    C    0.46071007    0.76777000    0.13220003    -0.07380000
opls_145-54    C    0.03917007    0.86678005    0.55293000    -0.13260000
opls_145-55    C    0.03924004    0.90196016    0.53834002    -0.07980000
opls_145-56    C    0.53928993    0.23223000    0.13220003    -0.07380000
opls_145-57    C    0.53917007    0.36678005    0.05293000    -0.13260000
opls_145-58    C    0.53924004    0.40196016    0.03834002    -0.07980000
opls_145-59    C    0.03928993    0.73223000    0.63220003    -0.07380000
opls_145-60    C    0.86678005    0.46082993    0.80293000    -0.13260000
opls_145-61    C    0.90196016    0.46075996    0.78834002    -0.07980000
opls_145-62    C    0.23223000    0.96071007    0.38220003    -0.07380000
opls_145-63    C    0.36678005    0.96082993    0.30293000    -0.13260000
opls_145-64    C    0.40196016    0.96075996    0.28834002    -0.07980000
opls_145-65    C    0.73223000    0.46071007    0.88220003    -0.07380000
opls_145-66    C    0.63321995    0.03917007    0.30293000    -0.13260000
opls_145-67    C    0.59803984    0.03924004    0.28834002    -0.07980000
opls_145-68    C    0.26777000    0.53928993    0.88220003    -0.07380000
opls_145-69    C    0.13321995    0.53917007    0.80293000    -0.13260000
opls_145-70    C    0.09803984    0.53924004    0.78834002    -0.07980000
opls_145-71    C    0.76777000    0.03928993    0.38220003    -0.07380000
opls_145-72    C    0.03917007    0.63321995    0.69707000    -0.13260000
opls_145-73    C    0.03924004    0.59803984    0.71165998    -0.07980000
opls_145-74    C    0.53928993    0.26777000    0.11779997    -0.07380000
opls_145-75    C    0.53917007    0.13321995    0.19707000    -0.13260000
opls_145-76    C    0.53924004    0.09803984    0.21165998    -0.07980000
opls_145-77    C    0.03928993    0.76777000    0.61779997    -0.07380000
opls_145-78    C    0.46082993    0.86678005    0.19707000    -0.13260000
opls_145-79    C    0.46075996    0.90196016    0.21165998    -0.07980000
opls_145-80    C    0.96071007    0.23223000    0.61779997    -0.07380000
opls_145-81    C    0.96082993    0.36678005    0.69707000    -0.13260000
opls_145-82    C    0.96075996    0.40196016    0.71165998    -0.07970000
opls_145-83    C    0.46071007    0.73223000    0.11779997    -0.07380000
opls_145-84    C    0.63321995    0.46082993    0.94707000    -0.13260000
opls_145-85    C    0.59803984    0.46075996    0.96165998    -0.07980000
opls_145-86    C    0.26777000    0.96071007    0.36779997    -0.07380000
opls_145-87    C    0.13321995    0.96082993    0.44707000    -0.13260000
opls_145-88    C    0.09803984    0.96075996    0.46165998    -0.07980000
opls_145-89    C    0.76777000    0.46071007    0.86779997    -0.07380000
opls_145-90    C    0.86678005    0.03917007    0.44707000    -0.13260000
opls_145-91    C    0.90196016    0.03924004    0.46165998    -0.07980000
opls_145-92    C    0.23223000    0.53928993    0.86779997    -0.07380000
opls_145-93    C    0.36678005    0.53917007    0.94707000    -0.13260000
opls_145-94    C    0.40196016    0.53924004    0.96165998    -0.07980000
opls_145-95    C    0.73223000    0.03928993    0.36779997    -0.07380000
opls_700-96    C    0.50000000    0.91963006    0.21959993    0.07720000
opls_261-97    C    0.50000000    0.82088986    0.15362996    0.28180000
opls_145-98    C    0.50000000    0.15088014    0.18972002    0.26320000
opls_700-99    C    0.00000000    0.41963006    0.71959993    0.07720000
opls_261-100    C    0.00000000    0.32088986    0.65362996    0.28180000
opls_145-101    C    0.00000000    0.65088014    0.68972002    0.26320000
opls_700-102    C    0.00000000    0.58036994    0.71959993    0.07720000
opls_261-103    C    0.00000000    0.67911014    0.65362996    0.28180000
opls_145-104    C    0.00000000    0.34911986    0.68972002    0.26320000
opls_700-105    C    0.50000000    0.08036994    0.21959993    0.07720000
opls_261-106    C    0.50000000    0.17911014    0.15362996    0.28180000
opls_145-107    C    0.50000000    0.84911986    0.18972002    0.26330000
opls_700-108    C    0.08036994    0.00000000    0.46959993    0.07720000
opls_261-109    C    0.17911014    0.00000000    0.40362996    0.28180000
opls_145-110    C    0.84911986    0.00000000    0.43972002    0.26320000
opls_700-111    C    0.58036994    0.50000000    0.96959993    0.07720000
opls_261-112    C    0.67911014    0.50000000    0.90362996    0.28190000
opls_145-113    C    0.34911986    0.50000000    0.93972002    0.26330000
opls_700-114    C    0.41963006    0.50000000    0.96959993    0.07720000
opls_261-115    C    0.32088986    0.50000000    0.90362996    0.28190000
opls_145-116    C    0.65088014    0.50000000    0.93972002    0.26320000
opls_700-117    C    0.00000000    0.91963006    0.53040007    0.07720000
opls_261-118    C    0.00000000    0.82088986    0.59637004    0.28190000
opls_145-119    C    0.00000000    0.15088014    0.56027998    0.26320000
opls_700-120    C    0.50000000    0.41963006    0.03040007    0.07720000
opls_261-121    C    0.50000000    0.32088986    0.09637004    0.28180000
opls_145-122    C    0.50000000    0.65088014    0.06027998    0.26320000
opls_700-123    C    0.50000000    0.58036994    0.03040007    0.07720000
opls_261-124    C    0.50000000    0.67911014    0.09637004    0.28180000
opls_145-125    C    0.50000000    0.34911986    0.06027998    0.26320000
opls_700-126    C    0.00000000    0.08036994    0.53040007    0.07720000
opls_261-127    C    0.00000000    0.17911014    0.59637004    0.28190000
opls_145-128    C    0.00000000    0.84911986    0.56027998    0.26330000
opls_700-129    C    0.41963006    0.00000000    0.28040007    0.07720000
opls_261-130    C    0.32088986    0.00000000    0.34637004    0.28190000
opls_145-131    C    0.65088014    0.00000000    0.31027998    0.26330000
opls_700-132    C    0.08036994    0.50000000    0.78040007    0.07720000
opls_261-133    C    0.17911014    0.50000000    0.84637004    0.28180000
opls_145-134    C    0.84911986    0.50000000    0.81027998    0.26330000
opls_700-135    C    0.91963006    0.50000000    0.78040007    0.07720000
opls_261-136    C    0.82088986    0.50000000    0.84637004    0.28180000
opls_145-137    C    0.15088014    0.50000000    0.81027998    0.26320000
opls_700-138    C    0.58036994    0.00000000    0.28040007    0.07720000
opls_261-139    C    0.67911014    0.00000000    0.34637004    0.28190000
opls_145-140    C    0.34911986    0.00000000    0.31027998    0.26320000
opls_700-141    C    0.91963006    0.00000000    0.46959993    0.07720000
opls_261-142    C    0.82088986    0.00000000    0.40362996    0.28180000
opls_145-143    C    0.15088014    0.00000000    0.43972002    0.26320000
opls_701-144    C    0.00000000    0.95901004    0.51511992    0.01130000
opls_700-145    C    0.00000000    0.78557013    0.61052994    -0.00230000
opls_701-146    C    0.50000000    0.45901004    0.01511992    0.01130000
opls_700-147    C    0.50000000    0.28557013    0.11052994    -0.00230000
opls_701-148    C    0.50000000    0.54098996    0.01511992    0.01140000
opls_700-149    C    0.50000000    0.71442987    0.11052994    -0.00230000
opls_701-150    C    0.00000000    0.04098996    0.51511992    0.01130000
opls_700-151    C    0.00000000    0.21442987    0.61052994    -0.00230000
opls_701-152    C    0.04098996    0.50000000    0.76511992    0.01130000
opls_700-153    C    0.21442987    0.50000000    0.86052994    -0.00230000
opls_701-154    C    0.45901004    0.00000000    0.26511992    0.01130000
opls_700-155    C    0.28557013    0.00000000    0.36052994    -0.00230000
opls_701-156    C    0.50000000    0.95901004    0.23488008    0.01130000
opls_700-157    C    0.50000000    0.78557013    0.13947006    -0.00230000
opls_701-158    C    0.00000000    0.45901004    0.73488008    0.01130000
opls_700-159    C    0.00000000    0.28557013    0.63947006    -0.00230000
opls_701-160    C    0.00000000    0.54098996    0.73488008    0.01130000
opls_700-161    C    0.00000000    0.71442987    0.63947006    -0.00230000
opls_701-162    C    0.50000000    0.04098996    0.23488008    0.01130000
opls_700-163    C    0.50000000    0.21442987    0.13947006    -0.00230000
opls_701-164    C    0.45901004    0.50000000    0.98488008    0.01130000
opls_700-165    C    0.28557013    0.50000000    0.88947006    -0.00230000
opls_701-166    C    0.04098996    0.00000000    0.48488008    0.01130000
opls_700-167    C    0.21442987    0.00000000    0.38947006    -0.00230000
opls_701-168    C    0.54098996    0.50000000    0.98488008    0.01130000
opls_700-169    C    0.71442987    0.50000000    0.88947006    -0.00230000
opls_701-170    C    0.95901004    0.00000000    0.48488008    0.01130000
opls_700-171    C    0.78557013    0.00000000    0.38947006    -0.00230000
opls_701-172    C    0.54098996    0.00000000    0.26511992    0.01130000
opls_700-173    C    0.71442987    0.00000000    0.36052994    -0.00230000
opls_701-174    C    0.95901004    0.50000000    0.76511992    0.01140000
opls_700-175    C    0.78557013    0.50000000    0.86052994    -0.00230000
opls_261-176    C    0.04034985    0.95965015    0.50000000    -0.06280000
opls_261-177    C    0.54034985    0.45965015    0.00000000    -0.06280000
opls_261-178    C    0.45965015    0.54034985    0.00000000    -0.06280000
opls_261-179    C    0.95965015    0.04034985    0.50000000    -0.06280000
opls_261-180    C    0.04034985    0.54034985    0.75000000    -0.06280000
opls_261-181    C    0.54034985    0.04034985    0.25000000    -0.06280000
opls_261-182    C    0.45965015    0.95965015    0.25000000    -0.06280000
opls_261-183    C    0.95965015    0.45965015    0.75000000    -0.06280000
opls_261-184    C    0.95965015    0.54034985    0.75000000    -0.06280000
opls_261-185    C    0.45965015    0.04034985    0.25000000    -0.06280000
opls_261-186    C    0.54034985    0.95965015    0.25000000    -0.06280000
opls_261-187    C    0.04034985    0.45965015    0.75000000    -0.06280000
opls_261-188    C    0.95965015    0.95965015    0.50000000    -0.06280000
opls_261-189    C    0.45965015    0.45965015    0.00000000    -0.06280000
opls_261-190    C    0.54034985    0.54034985    0.00000000    -0.06280000
opls_261-191    C    0.04034985    0.04034985    0.50000000    -0.06280000
opls_261-192    C    0.00000000    0.00000000    0.52954006    -0.06300000
opls_261-193    C    0.50000000    0.50000000    0.02954006    -0.06300000
opls_261-194    C    0.00000000    0.50000000    0.77954006    -0.06300000
opls_261-195    C    0.50000000    0.00000000    0.27954006    -0.06300000
opls_261-196    C    0.50000000    0.00000000    0.22045994    -0.06300000
opls_261-197    C    0.00000000    0.50000000    0.72045994    -0.06300000
opls_261-198    C    0.50000000    0.50000000    0.97045994    -0.06300000
opls_261-199    C    0.00000000    0.00000000    0.47045994    -0.06300000
opls_146-200    H    0.57111986    0.85236994    0.19110997    0.05020000
opls_146-201    H    0.57124004    0.91674992    0.21728993    0.05020000
opls_146-202    H    0.07126984    0.21770003    0.61196998    0.05020000
opls_146-203    H    0.07111986    0.35236994    0.69110997    0.05020000
opls_146-204    H    0.07124004    0.41674992    0.71728993    0.05020000
opls_146-205    H    0.57126984    0.71770003    0.11196998    0.05020000
opls_146-206    H    0.92888014    0.64763006    0.69110997    0.05020000
opls_146-207    H    0.92875996    0.58325008    0.71728993    0.05020000
opls_146-208    H    0.42873016    0.28229997    0.11196998    0.05020000
opls_146-209    H    0.42888014    0.14763006    0.19110997    0.05020000
opls_146-210    H    0.42875996    0.08325008    0.21728993    0.05020000
opls_146-211    H    0.92873016    0.78229997    0.61196998    0.05030000
opls_146-212    H    0.14763006    0.07111986    0.44110997    0.05020000
opls_146-213    H    0.08325008    0.07124004    0.46728993    0.05020000
opls_146-214    H    0.78229997    0.57126984    0.86196998    0.05020000
opls_146-215    H    0.64763006    0.57111986    0.94110997    0.05020000
opls_146-216    H    0.58325008    0.57124004    0.96728993    0.05020000
opls_146-217    H    0.28229997    0.07126984    0.36196998    0.05020000
opls_146-218    H    0.35236994    0.42888014    0.94110997    0.05020000
opls_146-219    H    0.41674992    0.42875996    0.96728993    0.05020000
opls_146-220    H    0.71770003    0.92873016    0.36196998    0.05020000
opls_146-221    H    0.85236994    0.92888014    0.44110997    0.05020000
opls_146-222    H    0.91674992    0.92875996    0.46728993    0.05020000
opls_146-223    H    0.21770003    0.42873016    0.86196998    0.05020000
opls_146-224    H    0.92888014    0.85236994    0.55889003    0.05020000
opls_146-225    H    0.92875996    0.91674992    0.53271007    0.05020000
opls_146-226    H    0.42873016    0.21770003    0.13803002    0.05020000
opls_146-227    H    0.42888014    0.35236994    0.05889003    0.05020000
opls_146-228    H    0.42875996    0.41674992    0.03271007    0.05020000
opls_146-229    H    0.92873016    0.71770003    0.63803002    0.05020000
opls_146-230    H    0.57111986    0.64763006    0.05889003    0.05020000
opls_146-231    H    0.57124004    0.58325008    0.03271007    0.05020000
opls_146-232    H    0.07126984    0.28229997    0.63803002    0.05020000
opls_146-233    H    0.07111986    0.14763006    0.55889003    0.05020000
opls_146-234    H    0.07124004    0.08325008    0.53271007    0.05020000
opls_146-235    H    0.57126984    0.78229997    0.13803002    0.05020000
opls_146-236    H    0.35236994    0.07111986    0.30889003    0.05020000
opls_146-237    H    0.41674992    0.07124004    0.28271007    0.05020000
opls_146-238    H    0.71770003    0.57126984    0.88803002    0.05020000
opls_146-239    H    0.85236994    0.57111986    0.80889003    0.05020000
opls_146-240    H    0.91674992    0.57124004    0.78271007    0.05020000
opls_146-241    H    0.21770003    0.07126984    0.38803002    0.05020000
opls_146-242    H    0.14763006    0.42888014    0.80889003    0.05020000
opls_146-243    H    0.08325008    0.42875996    0.78271007    0.05020000
opls_146-244    H    0.78229997    0.92873016    0.38803002    0.05020000
opls_146-245    H    0.64763006    0.92888014    0.30889003    0.05020000
opls_146-246    H    0.58325008    0.92875996    0.28271007    0.05030000
opls_146-247    H    0.28229997    0.42873016    0.88803002    0.05020000
opls_146-248    H    0.42888014    0.64763006    0.05889003    0.05030000
opls_146-249    H    0.42875996    0.58325008    0.03271007    0.05030000
opls_146-250    H    0.92873016    0.28229997    0.63803002    0.05020000
opls_146-251    H    0.92888014    0.14763006    0.55889003    0.05020000
opls_146-252    H    0.92875996    0.08325008    0.53271007    0.05020000
opls_146-253    H    0.42873016    0.78229997    0.13803002    0.05020000
opls_146-254    H    0.07111986    0.85236994    0.55889003    0.05020000
opls_146-255    H    0.07124004    0.91674992    0.53271007    0.05020000
opls_146-256    H    0.57126984    0.21770003    0.13803002    0.05030000
opls_146-257    H    0.57111986    0.35236994    0.05889003    0.05020000
opls_146-258    H    0.57124004    0.41674992    0.03271007    0.05020000
opls_146-259    H    0.07126984    0.71770003    0.63803002    0.05020000
opls_146-260    H    0.85236994    0.42888014    0.80889003    0.05020000
opls_146-261    H    0.91674992    0.42875996    0.78271007    0.05030000
opls_146-262    H    0.21770003    0.92873016    0.38803002    0.05020000
opls_146-263    H    0.35236994    0.92888014    0.30889003    0.05020000
opls_146-264    H    0.41674992    0.92875996    0.28271007    0.05020000
opls_146-265    H    0.71770003    0.42873016    0.88803002    0.05020000
opls_146-266    H    0.64763006    0.07111986    0.30889003    0.05020000
opls_146-267    H    0.58325008    0.07124004    0.28271007    0.05020000
opls_146-268    H    0.28229997    0.57126984    0.88803002    0.05020000
opls_146-269    H    0.14763006    0.57111986    0.80889003    0.05020000
opls_146-270    H    0.08325008    0.57124004    0.78271007    0.05020000
opls_146-271    H    0.78229997    0.07126984    0.38803002    0.05020000
opls_146-272    H    0.07111986    0.64763006    0.69110997    0.05020000
opls_146-273    H    0.07124004    0.58325008    0.71728993    0.05020000
opls_146-274    H    0.57126984    0.28229997    0.11196998    0.05020000
opls_146-275    H    0.57111986    0.14763006    0.19110997    0.05020000
opls_146-276    H    0.57124004    0.08325008    0.21728993    0.05020000
opls_146-277    H    0.07126984    0.78229997    0.61196998    0.05020000
opls_146-278    H    0.42888014    0.85236994    0.19110997    0.05020000
opls_146-279    H    0.42875996    0.91674992    0.21728993    0.05020000
opls_146-280    H    0.92873016    0.21770003    0.61196998    0.05020000
opls_146-281    H    0.92888014    0.35236994    0.69110997    0.05030000
opls_146-282    H    0.92875996    0.41674992    0.71728993    0.05020000
opls_146-283    H    0.42873016    0.71770003    0.11196998    0.05020000
opls_146-284    H    0.64763006    0.42888014    0.94110997    0.05020000
opls_146-285    H    0.58325008    0.42875996    0.96728993    0.05020000
opls_146-286    H    0.28229997    0.92873016    0.36196998    0.05020000
opls_146-287    H    0.14763006    0.92888014    0.44110997    0.05020000
opls_146-288    H    0.08325008    0.92875996    0.46728993    0.05020000
opls_146-289    H    0.78229997    0.42873016    0.86196998    0.05020000
opls_146-290    H    0.85236994    0.07111986    0.44110997    0.05020000
opls_146-291    H    0.91674992    0.07124004    0.46728993    0.05020000
opls_146-292    H    0.21770003    0.57126984    0.86196998    0.05020000
opls_146-293    H    0.35236994    0.57111986    0.94110997    0.05020000
opls_146-294    H    0.41674992    0.57124004    0.96728993    0.05020000
opls_146-295    H    0.71770003    0.07126984    0.36196998    0.05020000
opls_750-296    N    0.50000000    0.81493003    0.17579001    -0.26590000
opls_750-297    N    0.00000000    0.31493003    0.67579001    -0.26580000
opls_750-298    N    0.00000000    0.68506997    0.67579001    -0.26590000
opls_750-299    N    0.50000000    0.18506997    0.17579001    -0.26580000
opls_750-300    N    0.18506997    0.00000000    0.42579001    -0.26590000
opls_750-301    N    0.68506997    0.50000000    0.92579001    -0.26590000
opls_750-302    N    0.31493003    0.50000000    0.92579001    -0.26590000
opls_750-303    N    0.00000000    0.81493003    0.57420999    -0.26580000
opls_750-304    N    0.50000000    0.31493003    0.07420999    -0.26590000
opls_750-305    N    0.50000000    0.68506997    0.07420999    -0.26580000
opls_750-306    N    0.00000000    0.18506997    0.57420999    -0.26590000
opls_750-307    N    0.31493003    0.00000000    0.32420999    -0.26580000
opls_750-308    N    0.18506997    0.50000000    0.82420999    -0.26590000
opls_750-309    N    0.81493003    0.50000000    0.82420999    -0.26580000
opls_750-310    N    0.68506997    0.00000000    0.32420999    -0.26590000
opls_750-311    N    0.81493003    0.00000000    0.42579001    -0.26590000
