#======================================================================
# Crystal Data Generated By AuToFF
#----------------------------------------------------------------------

data_AuToFF_phase_1

_cell_length_a                         23.6100
_cell_length_b                         23.6100
_cell_length_c                         3.6500
_cell_angle_alpha                      90.00
_cell_angle_beta                       90.00
_cell_angle_gamma                      120.00
_symmetry_space_group_name_H-M_alt     'P 1'
_symmetry_space_group_IT_number        1

loop_
_space_group_symop_operation_xyz
   'x, y, z'

loop_
   _atom_site_label
   _atom_site_type_symbol
   _atom_site_fract_x
   _atom_site_fract_y
   _atom_site_fract_z
   _atom_site_charge
opls_916-0    C    0.62575989    0.36344016    0.55407945    0.19530000
opls_916-1    C    0.63655982    0.26231998    0.55407945    0.19520000
opls_916-2    C    0.73767986    0.37423986    0.55407945    0.19520000
opls_145-3    C    0.76834025    0.43825018    0.69540000    -0.12770000
opls_145-4    C    0.56175011    0.33008980    0.69540000    -0.12770000
opls_145-5    C    0.66991006    0.23166002    0.69540000    -0.12770000
opls_145-6    C    0.83635009    0.47769975    0.69304932    -0.08740000
opls_145-7    C    0.52230010    0.35865018    0.69304932    -0.08740000
opls_145-8    C    0.64135023    0.16365007    0.69304932    -0.08740000
opls_700-9    C    0.87529984    0.45358994    0.55452877    0.07330000
opls_700-10    C    0.54640996    0.42171023    0.55452877    0.07330000
opls_700-11    C    0.57828977    0.12469983    0.55452877    0.07330000
opls_145-12    C    0.84570000    0.38987013    0.41509863    -0.08900000
opls_145-13    C    0.61013011    0.45582989    0.41509863    -0.08900000
opls_145-14    C    0.54416989    0.15429998    0.41509863    -0.08900000
opls_145-15    C    0.77765012    0.35091990    0.41263014    -0.12770000
opls_145-16    C    0.64907999    0.42673007    0.41263014    -0.12770000
opls_145-17    C    0.57326989    0.22235003    0.41263014    -0.12770000
opls_142-18    C    0.50423001    0.45078022    0.55749041    0.02170000
opls_142-19    C    0.54922002    0.05344977    0.55749041    0.02170000
opls_142-20    C    0.94654998    0.49577001    0.55749041    0.02170000
opls_145-21    C    0.48656012    0.54124985    0.46156986    0.24320000
opls_145-22    C    0.41861998    0.50463005    0.51481918    -0.12800000
opls_145-23    C    0.38112004    0.53529980    0.50901918    -0.07120000
opls_700-24    C    0.41076988    0.60300017    0.45130137    0.08130000
opls_145-25    C    0.47871020    0.63930012    0.39789041    -0.07110000
opls_145-26    C    0.51621997    0.60860005    0.40201918    -0.10610000
opls_700-27    C    0.37110999    0.63561006    0.44861096    0.08860000
opls_145-28    C    0.30262000    0.59860976    0.44870137    -0.07680000
opls_145-29    C    0.45874985    0.94530994    0.46156986    0.24340000
opls_145-30    C    0.49536995    0.91399022    0.51481918    -0.12800000
opls_145-31    C    0.46469984    0.84581985    0.50901918    -0.07120000
opls_700-32    C    0.39700020    0.80777000    0.45130137    0.08130000
opls_145-33    C    0.36069995    0.83941006    0.39789041    -0.07120000
opls_145-34    C    0.39140003    0.90762005    0.40201918    -0.10610000
opls_700-35    C    0.36439009    0.73550022    0.44861096    0.08860000
opls_145-36    C    0.40138991    0.70400981    0.44870137    -0.07680000
opls_145-37    C    0.05469003    0.51344021    0.46156986    0.24340000
opls_145-38    C    0.08601031    0.58138022    0.51481918    -0.12800000
opls_145-39    C    0.15417987    0.61887987    0.50901918    -0.07110000
opls_700-40    C    0.19222991    0.58922984    0.45130137    0.08130000
opls_145-41    C    0.16058985    0.52128982    0.39789041    -0.07120000
opls_145-42    C    0.09238000    0.48377991    0.40201918    -0.10610000
opls_700-43    C    0.26450016    0.62889021    0.44861096    0.08870000
opls_145-44    C    0.29598984    0.69737994    0.44870137    -0.07680000
opls_750-45    N    0.52637005    0.51130002    0.46575068    -0.27020000
opls_750-46    N    0.48870008    0.01506980    0.46575068    -0.27010000
opls_750-47    N    0.98493030    0.47363018    0.46575068    -0.27020000
opls_239-48    N    0.66667004    0.33332991    0.55410959    -0.11930000
opls_146-49    H    0.73669974    0.45777983    0.81318904    0.05140000
opls_146-50    H    0.54221989    0.27892009    0.81318904    0.05140000
opls_146-51    H    0.72107995    0.26330009    0.81318904    0.05140000
opls_146-52    H    0.86014000    0.52973024    0.80450959    0.05080000
opls_146-53    H    0.47026988    0.33041015    0.80450959    0.05080000
opls_146-54    H    0.66958994    0.13986011    0.80450959    0.05140000
opls_146-55    H    0.87720023    0.36971007    0.30330959    0.05080000
opls_146-56    H    0.63029018    0.50749015    0.30330959    0.05080000
opls_146-57    H    0.49251002    0.12279978    0.30330959    0.05080000
opls_146-58    H    0.75362009    0.29931980    0.29469041    0.05080000
opls_146-59    H    0.70067990    0.45430007    0.29469041    0.05080000
opls_146-60    H    0.54570002    0.24638013    0.29469041    0.05080000
opls_144-61    H    0.45086007    0.41934996    0.64244110    0.03040000
opls_144-62    H    0.58064995    0.03150997    0.64244110    0.03040000
opls_144-63    H    0.96848998    0.54914006    0.64244110    0.03050000
opls_146-64    H    0.39402001    0.44964019    0.56298082    0.05140000
opls_146-65    H    0.32593984    0.50532991    0.55136986    0.05140000
opls_146-66    H    0.50341997    0.69431981    0.35075890    0.05140000
opls_146-67    H    0.57131005    0.63859977    0.35660000    0.05140000
opls_146-68    H    0.27733996    0.54292982    0.44884110    0.05140000
opls_146-69    H    0.55035995    0.94438021    0.56298082    0.05140000
opls_146-70    H    0.49467015    0.82061011    0.55136986    0.05140000
opls_146-71    H    0.30567992    0.80909978    0.35075890    0.05140000
opls_146-72    H    0.36139988    0.93270996    0.35660000    0.05140000
opls_146-73    H    0.45706993    0.73441008    0.44884110    0.05150000
opls_146-74    H    0.05561986    0.60598009    0.56298082    0.05140000
opls_146-75    H    0.17939001    0.67405998    0.55136986    0.05140000
opls_146-76    H    0.19089987    0.49657991    0.35075890    0.05140000
opls_146-77    H    0.06728983    0.42868978    0.35660000    0.05140000
opls_146-78    H    0.26559011    0.72266011    0.44884110    0.05140000
