#======================================================================
# Crystal Data Generated By AuToFF
#----------------------------------------------------------------------

data_AuToFF_phase_1

_cell_length_a                         38.9855
_cell_length_b                         38.9855
_cell_length_c                         5.0592
_cell_angle_alpha                      90.00
_cell_angle_beta                       90.00
_cell_angle_gamma                      120.00
_symmetry_space_group_name_H-M_alt     'P 1'
_symmetry_space_group_IT_number        1

loop_
_space_group_symop_operation_xyz
   'x, y, z'

loop_
   _atom_site_label
   _atom_site_type_symbol
   _atom_site_fract_x
   _atom_site_fract_y
   _atom_site_fract_z
   _atom_site_charge
opls_916-0    C    0.63177995    0.52492016    0.53885002    0.21270000
opls_145-1    C    0.62233007    0.54650006    0.36286962    -0.16590000
opls_145-2    C    0.58604013    0.54487014    0.37226044    -0.12570000
opls_700-3    C    0.55729002    0.52046017    0.55716912    0.06950000
opls_145-4    C    0.56679006    0.49898008    0.73617963    -0.11610000
opls_145-5    C    0.60346999    0.50144998    0.72654965    -0.16710000
opls_700-6    C    0.51742000    0.51784010    0.55860017    -0.02630000
opls_700-7    C    0.51843007    0.55700019    0.55744979    0.06940000
opls_145-8    C    0.54341007    0.58701995    0.73348948    -0.12570000
opls_145-9    C    0.54402004    0.62283994    0.73790916    -0.16740000
opls_916-10    C    0.52083000    0.63068002    0.56548071    0.21040000
opls_145-11    C    0.49652998    0.60097007    0.38810089    -0.16400000
opls_145-12    C    0.49515995    0.56478014    0.38309021    -0.11610000
opls_234-13    C    0.48195998    0.31147995    0.37781072    0.50160000
opls_700-14    C    0.47891003    0.27352000    0.47290085    -0.03320000
opls_145-15    C    0.45781010    0.25364999    0.70034986    -0.12470000
opls_145-16    C    0.45523990    0.21831989    0.77652989    -0.12570000
opls_700-17    C    0.47337003    0.20139013    0.62859938    -0.03200000
opls_145-18    C    0.49447996    0.22126014    0.40118991    -0.12470000
opls_145-19    C    0.49706993    0.25660001    0.32512057    -0.12700000
opls_234-20    C    0.47039003    0.16345002    0.72261029    0.49990000
opls_916-21    C    0.47508005    0.10685990    0.53885002    0.21270000
opls_145-22    C    0.45350010    0.07583015    0.36286962    -0.16590000
opls_145-23    C    0.45512991    0.04117002    0.37226044    -0.12570000
opls_700-24    C    0.47954003    0.03682999    0.55716912    0.06950000
opls_145-25    C    0.50101995    0.06780999    0.73617963    -0.11610000
opls_145-26    C    0.49854994    0.10201991    0.72654965    -0.16710000
opls_700-27    C    0.48216012    0.99958001    0.55860017    -0.02630000
opls_700-28    C    0.44300005    0.96143021    0.55744979    0.06940000
opls_145-29    C    0.41297998    0.95638999    0.73348948    -0.12570000
opls_145-30    C    0.37716008    0.92118014    0.73790916    -0.16740000
opls_916-31    C    0.36931996    0.89015009    0.56548071    0.21040000
opls_145-32    C    0.39903005    0.89555995    0.38810089    -0.16400000
opls_145-33    C    0.43521989    0.93038001    0.38309021    -0.11610000
opls_234-34    C    0.68851995    0.17048003    0.37781072    0.50160000
opls_700-35    C    0.72648006    0.20539013    0.47290085    -0.03320000
opls_145-36    C    0.74635008    0.20416007    0.70034986    -0.12470000
opls_145-37    C    0.78167999    0.23692015    0.77652989    -0.12570000
opls_700-38    C    0.79861001    0.27198013    0.62859938    -0.03200000
opls_145-39    C    0.77874001    0.27321997    0.40118991    -0.12470000
opls_145-40    C    0.74340000    0.24046995    0.32512057    -0.12690000
opls_234-41    C    0.83655012    0.30693999    0.72261029    0.49990000
opls_916-42    C    0.89313999    0.36821994    0.53885002    0.21270000
opls_145-43    C    0.92416998    0.37767009    0.36286962    -0.16590000
opls_145-44    C    0.95883011    0.41396013    0.37226044    -0.12570000
opls_700-45    C    0.96317010    0.44271014    0.55716912    0.06950000
opls_145-46    C    0.93218999    0.43320993    0.73617963    -0.11610000
opls_145-47    C    0.89798008    0.39653011    0.72654965    -0.16710000
opls_700-48    C    0.00042003    0.48258019    0.55860017    -0.02630000
opls_700-49    C    0.03857017    0.48157020    0.55744979    0.06940000
opls_145-50    C    0.04360996    0.45659006    0.73348948    -0.12570000
opls_145-51    C    0.07881988    0.45597992    0.73790916    -0.16740000
opls_916-52    C    0.10985019    0.47917019    0.56548071    0.21040000
opls_145-53    C    0.10443997    0.50346998    0.38810089    -0.16400000
opls_145-54    C    0.06962006    0.50484014    0.38309021    -0.11610000
opls_234-55    C    0.82952007    0.51804002    0.37781072    0.50160000
opls_700-56    C    0.79461005    0.52109016    0.47290085    -0.03320000
opls_145-57    C    0.79584007    0.54218994    0.70034986    -0.12470000
opls_145-58    C    0.76307986    0.54475996    0.77652989    -0.12570000
opls_700-59    C    0.72802010    0.52663004    0.62859938    -0.03200000
opls_145-60    C    0.72678018    0.50552019    0.40118991    -0.12470000
opls_145-61    C    0.75953007    0.50293003    0.32512057    -0.12690000
opls_234-62    C    0.69306011    0.52960998    0.72261029    0.49990000
opls_916-63    C    0.36822020    0.47508014    0.53885002    0.21270000
opls_145-64    C    0.37766993    0.45349994    0.36286962    -0.16590000
opls_145-65    C    0.41396002    0.45513016    0.37226044    -0.12570000
opls_700-66    C    0.44271013    0.47954013    0.55716912    0.06950000
opls_145-67    C    0.43320994    0.50101992    0.73617963    -0.11610000
opls_145-68    C    0.39653001    0.49855002    0.72654965    -0.16710000
opls_700-69    C    0.48258000    0.48215990    0.55860017    -0.02630000
opls_700-70    C    0.48157008    0.44300010    0.55744979    0.06940000
opls_145-71    C    0.45658993    0.41298005    0.73348948    -0.12570000
opls_145-72    C    0.45597996    0.37716006    0.73790916    -0.16740000
opls_916-73    C    0.47917000    0.36931998    0.56548071    0.21040000
opls_145-74    C    0.50347002    0.39902993    0.38810089    -0.16400000
opls_145-75    C    0.50484020    0.43522015    0.38309021    -0.11610000
opls_234-76    C    0.51804002    0.68852005    0.37781072    0.50160000
opls_700-77    C    0.52108997    0.72648000    0.47290085    -0.03320000
opls_145-78    C    0.54218990    0.74635001    0.70034986    -0.12470000
opls_145-79    C    0.54476010    0.78168011    0.77652989    -0.12570000
opls_700-80    C    0.52663012    0.79861017    0.62859938    -0.03200000
opls_145-81    C    0.50552019    0.77874016    0.40118991    -0.12470000
opls_145-82    C    0.50293007    0.74339999    0.32512057    -0.12690000
opls_234-83    C    0.52960997    0.83654998    0.72261029    0.49990000
opls_916-84    C    0.52491995    0.89314010    0.53885002    0.21270000
opls_145-85    C    0.54650005    0.92417015    0.36286962    -0.16590000
opls_145-86    C    0.54487009    0.95882998    0.37226044    -0.12570000
opls_700-87    C    0.52045997    0.96317001    0.55716912    0.06950000
opls_145-88    C    0.49898005    0.93219001    0.73617963    -0.11610000
opls_145-89    C    0.50145006    0.89798009    0.72654965    -0.16710000
opls_700-90    C    0.51783988    0.00041999    0.55860017    -0.02630000
opls_700-91    C    0.55700009    0.03857009    0.55744979    0.06940000
opls_145-92    C    0.58702002    0.04361001    0.73348948    -0.12570000
opls_145-93    C    0.62283992    0.07881986    0.73790916    -0.16740000
opls_916-94    C    0.63068004    0.10984991    0.56548071    0.21040000
opls_145-95    C    0.60096995    0.10444005    0.38810089    -0.16410000
opls_145-96    C    0.56478011    0.06961999    0.38309021    -0.11610000
opls_234-97    C    0.31148005    0.82951997    0.37781072    0.50160000
opls_700-98    C    0.27352008    0.79461016    0.47290085    -0.03320000
opls_145-99    C    0.25364992    0.79583993    0.70034986    -0.12470000
opls_145-100    C    0.21832016    0.76308015    0.77652989    -0.12570000
opls_700-101    C    0.20139014    0.72802017    0.62859938    -0.03200000
opls_145-102    C    0.22125999    0.72678003    0.40118991    -0.12470000
opls_145-103    C    0.25660000    0.75953005    0.32512057    -0.12690000
opls_234-104    C    0.16344988    0.69306001    0.72261029    0.49980000
opls_916-105    C    0.10686001    0.63178006    0.53885002    0.21270000
opls_145-106    C    0.07583017    0.62233021    0.36286962    -0.16600000
opls_145-107    C    0.04117003    0.58604016    0.37226044    -0.12570000
opls_700-108    C    0.03683005    0.55729016    0.55716912    0.06950000
opls_145-109    C    0.06781001    0.56679007    0.73617963    -0.11610000
opls_145-110    C    0.10202007    0.60347019    0.72654965    -0.16710000
opls_700-111    C    0.99958012    0.51742010    0.55860017    -0.02630000
opls_700-112    C    0.96142998    0.51843010    0.55744979    0.06940000
opls_145-113    C    0.95639004    0.54340994    0.73348948    -0.12570000
opls_145-114    C    0.92118012    0.54402008    0.73790916    -0.16740000
opls_916-115    C    0.89014995    0.52083011    0.56548071    0.21040000
opls_145-116    C    0.89556003    0.49653002    0.38810089    -0.16400000
opls_145-117    C    0.93038009    0.49516015    0.38309021    -0.11610000
opls_234-118    C    0.17047993    0.48195998    0.37781072    0.50160000
opls_700-119    C    0.20539010    0.47891014    0.47290085    -0.03320000
opls_145-120    C    0.20415993    0.45781006    0.70034986    -0.12470000
opls_145-121    C    0.23692014    0.45524004    0.77652989    -0.12570000
opls_700-122    C    0.27197990    0.47336996    0.62859938    -0.03200000
opls_145-123    C    0.27321997    0.49448011    0.40118991    -0.12470000
opls_145-124    C    0.24046993    0.49706997    0.32512057    -0.12690000
opls_234-125    C    0.30693989    0.47039002    0.72261029    0.49990000
opls_238-126    N    0.47806998    0.33292005    0.58027949    -0.34650000
opls_238-127    N    0.47364993    0.14187989    0.51856025    -0.34170000
opls_238-128    N    0.66707993    0.14515010    0.58027949    -0.34650000
opls_238-129    N    0.85812004    0.33176996    0.51856025    -0.34180000
opls_238-130    N    0.85484998    0.52193015    0.58027949    -0.34650000
opls_238-131    N    0.66823003    0.52635015    0.51856025    -0.34170000
opls_238-132    N    0.52193002    0.66707995    0.58027949    -0.34650000
opls_238-133    N    0.52635007    0.85812011    0.51856025    -0.34160000
opls_238-134    N    0.33292022    0.85485020    0.58027949    -0.34650000
opls_238-135    N    0.14187996    0.66823004    0.51856025    -0.34170000
opls_238-136    N    0.14515017    0.47807015    0.58027949    -0.34650000
opls_238-137    N    0.33177012    0.47365015    0.51856025    -0.34160000
opls_236-138    O    0.46513012    0.15166000    0.95026091    -0.36950000
opls_236-139    O    0.48731010    0.32302000    0.14953945    -0.39200000
opls_236-140    O    0.84834010    0.31347003    0.95026091    -0.36960000
opls_236-141    O    0.67698001    0.16429001    0.14953945    -0.39200000
opls_236-142    O    0.68653003    0.53486997    0.95026091    -0.36950000
opls_236-143    O    0.83570989    0.51268999    0.14953945    -0.39200000
opls_236-144    O    0.53486988    0.84834000    0.95026091    -0.36950000
opls_236-145    O    0.51268990    0.67698000    0.14953945    -0.39200000
opls_236-146    O    0.15165990    0.68652997    0.95026091    -0.36950000
opls_236-147    O    0.32301999    0.83570999    0.14953945    -0.39210000
opls_236-148    O    0.31346997    0.46513003    0.95026091    -0.36950000
opls_236-149    O    0.16429011    0.48731001    0.14953945    -0.39200000
opls_146-150    H    0.64369011    0.56525019    0.21094046    0.11730000
opls_146-151    H    0.58003016    0.56234015    0.22889983    0.08460000
opls_146-152    H    0.54523995    0.47959996    0.88333926    0.10920000
opls_146-153    H    0.60949003    0.48378005    0.86857013    0.06770000
opls_146-154    H    0.56231985    0.58246992    0.87302933    0.08200000
opls_146-155    H    0.56337011    0.64518016    0.88293011    0.11080000
opls_146-156    H    0.47727991    0.60528996    0.24985966    0.07300000
opls_146-157    H    0.47526020    0.54235018    0.24221023    0.10920000
opls_241-158    H    0.47590015    0.32295010    0.76739010    0.27550000
opls_146-159    H    0.44198985    0.26462995    0.82236915    0.10350000
opls_146-160    H    0.43810991    0.20355999    0.95540995    0.06890000
opls_146-161    H    0.51028016    0.21022006    0.27942955    0.10270000
opls_146-162    H    0.51421993    0.27135991    0.14629981    0.07780000
opls_241-163    H    0.47270000    0.15023000    0.33076969    0.25040000
opls_146-164    H    0.43474995    0.07844015    0.21094046    0.11730000
opls_146-165    H    0.43766011    0.01769008    0.22889983    0.08450000
opls_146-166    H    0.52040006    0.06564012    0.88333926    0.10920000
opls_146-167    H    0.51622004    0.12571015    0.86857013    0.06770000
opls_146-168    H    0.41752992    0.97985009    0.87302933    0.08200000
opls_146-169    H    0.35482014    0.91819013    0.88293011    0.10580000
opls_146-170    H    0.39470989    0.87198996    0.24985966    0.07300000
opls_146-171    H    0.45764995    0.93291004    0.24221023    0.10920000
opls_241-172    H    0.67705003    0.15294989    0.76739010    0.27550000
opls_146-173    H    0.73537000    0.17736016    0.82236915    0.10350000
opls_146-174    H    0.79644010    0.23455006    0.95540995    0.06890000
opls_146-175    H    0.78977998    0.30006016    0.27942955    0.10270000
opls_146-176    H    0.72864006    0.24285989    0.14629981    0.07780000
opls_241-177    H    0.84976996    0.32246998    0.33076969    0.25040000
opls_146-178    H    0.92156009    0.35630996    0.21094046    0.11730000
opls_146-179    H    0.98231013    0.41997007    0.22889983    0.08460000
opls_146-180    H    0.93435999    0.45475992    0.88333926    0.10920000
opls_146-181    H    0.87429008    0.39051010    0.86857013    0.06770000
opls_146-182    H    0.02014997    0.43767999    0.87302933    0.08200000
opls_146-183    H    0.08180989    0.43663001    0.88293011    0.10580000
opls_146-184    H    0.12800995    0.52272008    0.24985966    0.07300000
opls_146-185    H    0.06709000    0.52474007    0.24221023    0.10920000
opls_241-186    H    0.84705007    0.52410001    0.76739010    0.27550000
opls_146-187    H    0.82264004    0.55801019    0.82236915    0.10350000
opls_146-188    H    0.76544998    0.56188995    0.95540995    0.06890000
opls_146-189    H    0.69994001    0.48972008    0.27942955    0.10270000
opls_146-190    H    0.75713987    0.48577990    0.14629981    0.07780000
opls_241-191    H    0.67753004    0.52730002    0.33076969    0.25040000
opls_146-192    H    0.35631004    0.43475011    0.21094046    0.11730000
opls_146-193    H    0.41996998    0.43766014    0.22889983    0.08460000
opls_146-194    H    0.45476005    0.52040004    0.88333926    0.10920000
opls_146-195    H    0.39050997    0.51621995    0.86857013    0.06770000
opls_146-196    H    0.43768015    0.41753008    0.87302933    0.08200000
opls_146-197    H    0.43663003    0.35482014    0.88293011    0.10580000
opls_146-198    H    0.52272009    0.39471004    0.24985966    0.07300000
opls_146-199    H    0.52473995    0.45765012    0.24221023    0.10910000
opls_241-200    H    0.52409999    0.67705020    0.76739010    0.27550000
opls_146-201    H    0.55801015    0.73537005    0.82236915    0.10350000
opls_146-202    H    0.56189009    0.79644001    0.95540995    0.06890000
opls_146-203    H    0.48971984    0.78977994    0.27942955    0.10270000
opls_146-204    H    0.48578007    0.72864009    0.14629981    0.07780000
opls_241-205    H    0.52730000    0.84977000    0.33076969    0.25040000
opls_146-206    H    0.56525020    0.92156015    0.21094046    0.11730000
opls_146-207    H    0.56234004    0.98231022    0.22889983    0.08110000
opls_146-208    H    0.47960009    0.93436017    0.88333926    0.10920000
opls_146-209    H    0.48378011    0.87429015    0.86857013    0.06770000
opls_146-210    H    0.58247008    0.02014991    0.87302933    0.08190000
opls_146-211    H    0.64517986    0.08180987    0.88293011    0.10580000
opls_146-212    H    0.60529011    0.12801004    0.24985966    0.07300000
opls_146-213    H    0.54235005    0.06708996    0.24221023    0.10920000
opls_241-214    H    0.32294997    0.84705011    0.76739010    0.27550000
opls_146-215    H    0.26463014    0.82264014    0.82236915    0.10350000
opls_146-216    H    0.20355990    0.76544994    0.95540995    0.06890000
opls_146-217    H    0.21022016    0.69994014    0.27942955    0.10270000
opls_146-218    H    0.27135994    0.75714011    0.14629981    0.07780000
opls_241-219    H    0.15023004    0.67753002    0.33076969    0.25040000
opls_146-220    H    0.07843991    0.64369004    0.21094046    0.11730000
opls_146-221    H    0.01768987    0.58002993    0.22889983    0.08460000
opls_146-222    H    0.06564001    0.54524008    0.88333926    0.10910000
opls_146-223    H    0.12571007    0.60949019    0.86857013    0.06770000
opls_146-224    H    0.97985003    0.56232001    0.87302933    0.08200000
opls_146-225    H    0.91819011    0.56336999    0.88293011    0.10580000
opls_146-226    H    0.87199005    0.47727992    0.24985966    0.07300000
opls_146-227    H    0.93291000    0.47525993    0.24221023    0.10920000
opls_241-228    H    0.15294993    0.47589999    0.76739010    0.27550000
opls_146-229    H    0.17736011    0.44199011    0.82236915    0.10350000
opls_146-230    H    0.23455002    0.43811005    0.95540995    0.06890000
opls_146-231    H    0.30005999    0.51027992    0.27942955    0.10270000
opls_146-232    H    0.24286013    0.51422010    0.14629981    0.07780000
opls_241-233    H    0.32246996    0.47269998    0.33076969    0.25040000
