#======================================================================
# Crystal Data Generated By AuToFF
#----------------------------------------------------------------------

data_AuToFF_phase_1

_cell_length_a                         11.2000
_cell_length_b                         11.0500
_cell_length_c                         6.9800
_cell_angle_alpha                      89.90
_cell_angle_beta                       90.30
_cell_angle_gamma                      59.90
_symmetry_space_group_name_H-M_alt     'P 1'
_symmetry_space_group_IT_number        1

loop_
_space_group_symop_operation_xyz
   'x, y, z'

loop_
   _atom_site_label
   _atom_site_type_symbol
   _atom_site_fract_x
   _atom_site_fract_y
   _atom_site_fract_z
   _atom_site_charge
opls_700-0    C    0.45822978    0.42543021    0.00371929    -0.11510000
opls_280-1    C    0.60951083    0.36798965    0.99796986    0.28720000
opls_700-2    C    0.66156107    0.46758945    0.99807875    -0.10940000
opls_280-3    C    0.56694108    0.62082953    0.99657871    0.36220000
opls_700-4    C    0.41656071    0.67381985    0.99563886    -0.11510000
opls_280-5    C    0.36004005    0.57793009    0.00268058    0.28720000
opls_142-6    C    0.41247019    0.32989982    0.00352015    0.09380000
opls_642-7    C    0.22873019    0.27559012    0.00200005    0.49610000
opls_642-8    C    0.04749007    0.23584053    0.00037967    0.39970000
opls_642-9    C    0.26806952    0.05205039    0.00262041    0.55980000
opls_142-10    C    0.32204045    0.81579046    0.00193988    0.09990000
opls_142-11    C    0.80155015    0.42167013    0.99963896    0.09370000
opls_700-12    C    0.45823019    0.42543027    0.50015903    -0.10670000
opls_280-13    C    0.60951037    0.36798963    0.50152010    0.33100000
opls_700-14    C    0.66156015    0.46759044    0.50163901    -0.10940000
opls_280-15    C    0.56694011    0.62083056    0.50012894    0.18330000
opls_700-16    C    0.41656025    0.67381982    0.49918909    -0.10940000
opls_280-17    C    0.36004051    0.57793012    0.49913035    0.33750000
opls_142-18    C    0.41247060    0.32989988    0.49995988    0.09380000
opls_642-19    C    0.22872975    0.27559014    0.49844982    0.49610000
opls_642-20    C    0.04749010    0.23583954    0.49681940    0.39970000
opls_642-21    C    0.26807044    0.05204941    0.49906015    0.55980000
opls_142-22    C    0.32204001    0.81579049    0.49838964    0.09370000
opls_142-23    C    0.80155058    0.42167011    0.50318919    0.09380000
opls_144-24    H    0.48725022    0.21638971    0.00429954    0.07430000
opls_910-25    H    0.20632042    0.47685997    0.00161036    0.30060000
opls_144-26    H    0.21013065    0.85314998    0.00125934    0.04980000
opls_144-27    H    0.83803027    0.49798006    0.99972922    0.05580000
opls_910-28    H    0.86368000    0.21264053    0.00804032    0.30060000
opls_910-29    H    0.46677081    0.87797005    0.99564888    0.30060000
opls_144-30    H    0.48725067    0.21638974    0.50074930    0.07430000
opls_910-31    H    0.20631998    0.47686000    0.49806012    0.30060000
opls_144-32    H    0.21013022    0.85315001    0.49770911    0.04980000
opls_144-33    H    0.83803070    0.49798004    0.50327945    0.05580000
opls_910-34    H    0.86368008    0.21263950    0.50449009    0.30060000
opls_910-35    H    0.46677036    0.87797003    0.49919912    0.30060000
opls_238-36    N    0.27665019    0.36890973    0.00233960    -0.27040000
opls_641-37    N    0.09063018    0.33012062    0.00066048    -0.48470000
opls_641-38    N    0.32179992    0.13747970    0.00298002    -0.48350000
opls_641-39    N    0.13187034    0.09590990    0.00138972    -0.47990000
opls_238-40    N    0.36032028    0.91453999    0.99491964    -0.26060000
opls_238-41    N    0.89937983    0.28423039    0.00822944    -0.38340000
opls_238-42    N    0.27665060    0.36890979    0.49877934    -0.27030000
opls_641-43    N    0.09063026    0.33011960    0.49711024    -0.48470000
opls_641-44    N    0.32180032    0.13747976    0.49941976    -0.48350000
opls_641-45    N    0.13186986    0.09590996    0.49782946    -0.47990000
opls_238-46    N    0.36032072    0.91453997    0.49846987    -0.25980000
opls_238-47    N    0.89938029    0.28423041    0.50467920    -0.38270000
opls_281-48    O    0.61415121    0.70120944    0.99613887    -0.37780000
opls_281-49    O    0.23345972    0.62583019    0.00179947    -0.34600000
opls_281-50    O    0.68916047    0.23977983    0.99897992    -0.29780000
opls_281-51    O    0.61415023    0.70121047    0.49968910    -0.37780000
opls_281-52    O    0.23346013    0.62583025    0.49823921    -0.34600000
opls_281-53    O    0.68916001    0.23977981    0.50253015    -0.29780000
