#======================================================================
# Crystal Data Generated By AuToFF
#----------------------------------------------------------------------

data_AuToFF_phase_1

_cell_length_a                         32.9600
_cell_length_b                         32.9600
_cell_length_c                         3.5000
_cell_angle_alpha                      90.00
_cell_angle_beta                       90.00
_cell_angle_gamma                      120.00
_symmetry_space_group_name_H-M_alt     'P 1'
_symmetry_space_group_IT_number        1

loop_
_space_group_symop_operation_xyz
   'x, y, z'

loop_
   _atom_site_label
   _atom_site_type_symbol
   _atom_site_fract_x
   _atom_site_fract_y
   _atom_site_fract_z
   _atom_site_charge
opls_145-0    C    0.01298005    0.55183995    0.49924000    -0.07810000
opls_235-1    C    0.10365992    0.57771001    0.50012000    0.39130000
opls_142-2    C    0.22951986    0.58919991    0.49988857    -0.01740000
opls_700-3    C    0.28143020    0.62787011    0.49975143    -0.06320000
opls_231-4    C    0.29475014    0.67982007    0.49988857    0.20630000
opls_145-5    C    0.44816007    0.46113992    0.49924000    -0.07810000
opls_145-6    C    0.48702000    0.44816986    0.49872857    -0.07810000
opls_700-7    C    0.53884992    0.48702994    0.50006000    -0.04050000
opls_235-8    C    0.42228989    0.52594993    0.50012000    0.39130000
opls_142-9    C    0.41079983    0.64031992    0.49988857    -0.01740000
opls_700-10    C    0.37213017    0.65356009    0.49975143    -0.06320000
opls_231-11    C    0.32018002    0.61492983    0.49988857    0.20630000
opls_145-12    C    0.53886001    0.98701978    0.49924000    -0.07810000
opls_235-13    C    0.47404989    0.89634006    0.50012000    0.39130000
opls_142-14    C    0.35967984    0.77047982    0.49988857    -0.01740000
opls_700-15    C    0.34643993    0.71856980    0.49975143    -0.06320000
opls_231-16    C    0.38507014    0.70525010    0.49988857    0.20630000
opls_145-17    C    0.98701995    0.44816005    0.49924000    -0.07810000
opls_235-18    C    0.89634008    0.42228999    0.50012000    0.39130000
opls_142-19    C    0.77048014    0.41080009    0.49988857    -0.01740000
opls_700-20    C    0.71856980    0.37212989    0.49975143    -0.06320000
opls_231-21    C    0.70524986    0.32017993    0.49988857    0.20630000
opls_145-22    C    0.55183993    0.53886008    0.49924000    -0.07810000
opls_145-23    C    0.51297982    0.55182979    0.49872857    -0.07810000
opls_700-24    C    0.46115008    0.51297006    0.50006000    -0.04050000
opls_235-25    C    0.57771011    0.47405007    0.50012000    0.39130000
opls_142-26    C    0.58920017    0.35968008    0.49988857    -0.01740000
opls_700-27    C    0.62786983    0.34643991    0.49975143    -0.06320000
opls_231-28    C    0.67981980    0.38506982    0.49988857    0.20630000
opls_145-29    C    0.46113981    0.01297987    0.49924000    -0.07810000
opls_235-30    C    0.52595011    0.10365994    0.50012000    0.39130000
opls_142-31    C    0.64031999    0.22951983    0.49988857    -0.01740000
opls_700-32    C    0.65355989    0.28142985    0.49975143    -0.06320000
opls_231-33    C    0.61492986    0.29474990    0.49988857    0.20630000
opls_145-34    C    0.96114983    0.51297987    0.49872857    -0.07810000
opls_700-35    C    0.94818001    0.46115008    0.50006000    -0.04050000
opls_145-36    C    0.55183000    0.03884992    0.49872857    -0.07810000
opls_700-37    C    0.51297007    0.05181998    0.50006000    -0.04050000
opls_145-38    C    0.03885000    0.48701978    0.49872857    -0.07810000
opls_700-39    C    0.05181999    0.53884992    0.50006000    -0.04050000
opls_145-40    C    0.44817000    0.96115008    0.49872857    -0.07810000
opls_700-41    C    0.48702993    0.94818002    0.50006000    -0.04050000
opls_236-42    O    0.11644986    0.62855992    0.49928857    -0.30810000
opls_272-43    O    0.25697003    0.69298982    0.49988000    -0.25150000
opls_236-44    O    0.37144015    0.48789001    0.49928857    -0.30820000
opls_272-45    O    0.30701006    0.56398007    0.49988000    -0.25150000
opls_236-46    O    0.51210999    0.88355007    0.49928857    -0.30810000
opls_272-47    O    0.43601973    0.74302976    0.49988000    -0.25150000
opls_236-48    O    0.88355014    0.37144008    0.49928857    -0.30810000
opls_272-49    O    0.74302979    0.30700983    0.49988000    -0.25150000
opls_236-50    O    0.62855985    0.51210999    0.49928857    -0.30830000
opls_272-51    O    0.69298994    0.43601993    0.49988000    -0.25150000
opls_236-52    O    0.48789001    0.11644993    0.49928857    -0.30810000
opls_272-53    O    0.56398009    0.25696989    0.49988000    -0.25160000
opls_238-54    N    0.19155994    0.60211987    0.50011143    -0.12360000
opls_238-55    N    0.56492990    0.42322994    0.49947143    -0.20710000
opls_238-56    N    0.39787983    0.58943989    0.50011143    -0.12370000
opls_238-57    N    0.41056006    0.80843989    0.50011143    -0.12360000
opls_238-58    N    0.80844006    0.39788013    0.50011143    -0.12360000
opls_238-59    N    0.43507010    0.57677006    0.49947143    -0.20710000
opls_238-60    N    0.60212017    0.41056011    0.50011143    -0.12360000
opls_238-61    N    0.58943994    0.19156011    0.50011143    -0.12360000
opls_238-62    N    0.85829978    0.43506982    0.49947143    -0.20710000
opls_238-63    N    0.57676985    0.14169989    0.49947143    -0.20720000
opls_238-64    N    0.14170005    0.56492983    0.49947143    -0.20710000
opls_238-65    N    0.42322998    0.85829976    0.49947143    -0.20710000
opls_910-66    H    0.20105986    0.63952992    0.49996000    0.22520000
opls_144-67    H    0.21976007    0.55077984    0.49983143    0.02730000
opls_146-68    H    0.47741997    0.40979989    0.49737143    0.04620000
opls_910-69    H    0.52754997    0.39524982    0.49885143    0.22520000
opls_910-70    H    0.36047002    0.56152984    0.49996000    0.22520000
opls_144-71    H    0.44921999    0.66898004    0.49983143    0.02730000
opls_910-72    H    0.43846994    0.79893989    0.49996000    0.22520000
opls_144-73    H    0.33101976    0.78023977    0.49983143    0.02730000
opls_910-74    H    0.79894014    0.36047008    0.49996000    0.22520000
opls_144-75    H    0.78023976    0.44921981    0.49983143    0.02730000
opls_146-76    H    0.52258003    0.59020011    0.49737143    0.04620000
opls_910-77    H    0.47244985    0.60474983    0.49885143    0.22520000
opls_910-78    H    0.63952981    0.43846981    0.49996000    0.22520000
opls_144-79    H    0.55078001    0.33101996    0.49983143    0.02730000
opls_910-80    H    0.56153006    0.20106011    0.49996000    0.22520000
opls_144-81    H    0.66898006    0.21975988    0.49983143    0.02730000
opls_146-82    H    0.93238014    0.52258007    0.49737143    0.04620000
opls_910-83    H    0.86770017    0.47245009    0.49885143    0.22520000
opls_146-84    H    0.59019989    0.06762004    0.49737143    0.04620000
opls_910-85    H    0.60475016    0.13230008    0.49885143    0.22520000
opls_146-86    H    0.06761986    0.47741993    0.49737143    0.04620000
opls_910-87    H    0.13229983    0.52754991    0.49885143    0.22520000
opls_146-88    H    0.40980011    0.93237996    0.49737143    0.04620000
opls_910-89    H    0.39524984    0.86769992    0.49885143    0.22520000
opls_146-90    H    0.59162011    0.56185004    0.50076000    0.04620000
opls_146-91    H    0.43814985    0.02976997    0.50076000    0.04620000
opls_146-92    H    0.97023004    0.40837999    0.50076000    0.04620000
opls_146-93    H    0.40837989    0.43814996    0.50076000    0.04620000
opls_146-94    H    0.56185015    0.97023003    0.50076000    0.04620000
opls_146-95    H    0.02976996    0.59162001    0.50076000    0.04620000
