#======================================================================
# Crystal Data Generated By AuToFF
#----------------------------------------------------------------------

data_AuToFF_phase_1

_cell_length_a                         43.1500
_cell_length_b                         43.1500
_cell_length_c                         3.6500
_cell_angle_alpha                      90.00
_cell_angle_beta                       90.00
_cell_angle_gamma                      120.00
_symmetry_space_group_name_H-M_alt     'P 1'
_symmetry_space_group_IT_number        1

loop_
_space_group_symop_operation_xyz
   'x, y, z'

loop_
   _atom_site_label
   _atom_site_type_symbol
   _atom_site_fract_x
   _atom_site_fract_y
   _atom_site_fract_z
   _atom_site_charge
opls_142-0    C    0.72294002    0.18504991    0.15573973    0.06570000
opls_145-1    C    0.78638006    0.22384008    0.01755068    0.17920000
opls_145-2    C    0.81776012    0.22325002    0.93627123    -0.18160000
opls_145-3    C    0.85072997    0.25495009    0.92236986    -0.17680000
opls_145-4    C    0.82121991    0.28864005    0.06418082    -0.17540000
opls_145-5    C    0.78827996    0.25697985    0.07773973    -0.17710000
opls_916-6    C    0.96018992    0.52049988    0.12638082    0.20140000
opls_145-7    C    0.93426998    0.48862988    0.95732877    -0.19700000
opls_145-8    C    0.93826000    0.45864005    0.92761096    -0.11790000
opls_700-9    C    0.96884999    0.45916000    0.06404932    0.05830000
opls_145-10    C    0.99479000    0.49029008    0.23933973    -0.12420000
opls_145-11    C    0.99024998    0.52002997    0.27335890    -0.17790000
opls_700-12    C    0.97402007    0.42788996    0.00813973    0.06110000
opls_145-13    C    0.94446992    0.39303995    0.00683014    -0.18010000
opls_700-14    C    0.94857994    0.36357007    0.92361096    0.04960000
opls_145-15    C    0.98273004    0.36897990    0.84892877    -0.17600000
opls_700-16    C    0.01300986    0.40341995    0.86498082    0.06540000
opls_145-17    C    0.00824987    0.43271990    0.94201096    -0.18880000
opls_700-18    C    0.04951988    0.40859991    0.81183014    0.06610000
opls_142-19    C    0.91747006    0.32699992    0.91390959    0.06560000
opls_145-20    C    0.05739986    0.38228987    0.93084932    -0.12750000
opls_145-21    C    0.09189009    0.38756001    0.89758082    -0.12470000
opls_700-22    C    0.11952992    0.41952982    0.74949041    0.05080000
opls_145-23    C    0.11183001    0.44571008    0.62680000    -0.12520000
opls_145-24    C    0.07714985    0.44025984    0.65547123    -0.13820000
opls_145-25    C    0.85267010    0.28804009    0.98810959    0.17930000
opls_142-26    C    0.15647996    0.42615992    0.72975068    0.06560000
opls_916-27    C    0.41149988    0.40017983    0.14706027    0.20140000
opls_916-28    C    0.45105989    0.37141989    0.14250959    0.17010000
opls_145-29    C    0.40490991    0.42631994    0.99073973    -0.17130000
opls_145-30    C    0.37094997    0.42281998    0.99227123    -0.12640000
opls_700-31    C    0.34178988    0.39233991    0.14198082    0.05400000
opls_145-32    C    0.34748992    0.36612005    0.29850137    -0.13790000
opls_145-33    C    0.38170000    0.37032005    0.30620000    -0.18740000
opls_145-34    C    0.42400002    0.33821001    0.00358082    -0.17190000
opls_145-35    C    0.42714996    0.30756991    0.00909041    -0.12630000
opls_700-36    C    0.45801006    0.30896010    0.14806027    0.05350000
opls_145-37    C    0.48545014    0.34143006    0.28147945    -0.13790000
opls_145-38    C    0.48192990    0.37187000    0.28026027    -0.17190000
opls_142-39    C    0.30535002    0.38708983    0.13301918    0.06570000
opls_145-40    C    0.26465995    0.40778988    0.94256986    0.17920000
opls_145-41    C    0.26339008    0.43875003    0.85661918    -0.17680000
opls_145-42    C    0.23060001    0.43761995    0.82160000    -0.17810000
opls_145-43    C    0.19836998    0.40506998    0.86783014    0.17860000
opls_145-44    C    0.19966997    0.37406995    0.94840000    -0.17790000
opls_145-45    C    0.23239995    0.37517996    0.98289041    -0.17990000
opls_142-46    C    0.81495008    0.53788996    0.15573973    0.06570000
opls_145-47    C    0.77615996    0.56254007    0.01755068    0.17920000
opls_145-48    C    0.77674996    0.59450989    0.93627123    -0.18160000
opls_145-49    C    0.74504987    0.59577992    0.92236986    -0.17680000
opls_145-50    C    0.71135996    0.53257995    0.06418082    -0.17550000
opls_145-51    C    0.74302011    0.53130001    0.07773973    -0.17710000
opls_916-52    C    0.47949985    0.43968985    0.12638082    0.20140000
opls_145-53    C    0.51136993    0.44563997    0.95732877    -0.19700000
opls_145-54    C    0.54135995    0.47962001    0.92761096    -0.11790000
opls_700-55    C    0.54083983    0.50968985    0.06404932    0.05830000
opls_145-56    C    0.50971002    0.50449999    0.23933973    -0.12420000
opls_145-57    C    0.47997001    0.47021997    0.27335890    -0.17790000
opls_700-58    C    0.57210993    0.54612995    0.00813973    0.06110000
opls_145-59    C    0.60695999    0.55143006    0.00683014    -0.18010000
opls_700-60    C    0.63642993    0.58501004    0.92361096    0.04960000
opls_145-61    C    0.63102003    0.61374990    0.84892877    -0.17600000
opls_700-62    C    0.59657995    0.60959003    0.86498082    0.06540000
opls_145-63    C    0.56727994    0.57552998    0.94201096    -0.18890000
opls_700-64    C    0.59139998    0.64092001    0.81183014    0.06610000
opls_142-65    C    0.67299996    0.59046991    0.91390959    0.06560000
opls_145-66    C    0.61770997    0.67510985    0.93084932    -0.12750000
opls_145-67    C    0.61244012    0.70433006    0.89758082    -0.12470000
opls_700-68    C    0.58046999    0.70000000    0.74949041    0.05080000
opls_145-69    C    0.55428992    0.66612005    0.62680000    -0.12520000
opls_145-70    C    0.55973999    0.63688994    0.65547123    -0.13830000
opls_145-71    C    0.71195998    0.56463004    0.98810959    0.17930000
opls_142-72    C    0.57383998    0.73032005    0.72975068    0.06560000
opls_916-73    C    0.59981995    0.01132008    0.14706027    0.20140000
opls_916-74    C    0.62857995    0.07964008    0.14250959    0.17010000
opls_145-75    C    0.57367994    0.97859001    0.99073973    -0.17130000
opls_145-76    C    0.57717995    0.94813000    0.99227123    -0.12640000
opls_700-77    C    0.60766002    0.94944981    0.14198082    0.05400000
opls_145-78    C    0.63387983    0.98136985    0.29850137    -0.13790000
opls_145-79    C    0.62968005    0.01138002    0.30620000    -0.18740000
opls_145-80    C    0.66179006    0.08579009    0.00358082    -0.17190000
opls_145-81    C    0.69243003    0.11957987    0.00909041    -0.12630000
opls_700-82    C    0.69103996    0.14905001    0.14806027    0.05350000
opls_145-83    C    0.65856986    0.14401991    0.28147945    -0.13790000
opls_145-84    C    0.62813009    0.11005994    0.28026027    -0.17190000
opls_142-85    C    0.61290996    0.91825979    0.13301918    0.06570000
opls_145-86    C    0.59220990    0.85686987    0.94256986    0.17920000
opls_145-87    C    0.56124998    0.82463994    0.85661918    -0.17680000
opls_145-88    C    0.56237992    0.79298001    0.82160000    -0.17810000
opls_145-89    C    0.59492985    0.79329979    0.86783014    0.17860000
opls_145-90    C    0.62592993    0.82559983    0.94840000    -0.17790000
opls_145-91    C    0.62481991    0.85721989    0.98289041    -0.17990000
opls_142-92    C    0.46211000    0.27705986    0.15573973    0.06570000
opls_145-93    C    0.43745998    0.21361985    0.01755068    0.17920000
opls_145-94    C    0.40549015    0.18224009    0.93627123    -0.18160000
opls_145-95    C    0.40421993    0.14926998    0.92236986    -0.17680000
opls_145-96    C    0.46741990    0.17878000    0.06418082    -0.17550000
opls_145-97    C    0.46870003    0.21171987    0.07773973    -0.17710000
opls_916-98    C    0.56031010    0.03981000    0.12638082    0.20150000
opls_145-99    C    0.55435996    0.06572988    0.95732877    -0.19700000
opls_145-100    C    0.52038005    0.06173994    0.92761096    -0.11790000
opls_700-101    C    0.49031005    0.03114988    0.06404932    0.05830000
opls_145-102    C    0.49549998    0.00520993    0.23933973    -0.12420000
opls_145-103    C    0.52978001    0.00975006    0.27335890    -0.17790000
opls_700-104    C    0.45387000    0.02598009    0.00813973    0.06110000
opls_145-105    C    0.44857009    0.05552998    0.00683014    -0.18010000
opls_700-106    C    0.41498990    0.05141989    0.92361096    0.04960000
opls_145-107    C    0.38625003    0.01726993    0.84892877    -0.17600000
opls_700-108    C    0.39040996    0.98699002    0.86498082    0.06540000
opls_145-109    C    0.42446982    0.99174985    0.94201096    -0.18880000
opls_700-110    C    0.35908000    0.95047981    0.81183014    0.06610000
opls_142-111    C    0.40952984    0.08252990    0.91390959    0.06560000
opls_145-112    C    0.32489004    0.94260002    0.93084932    -0.12750000
opls_145-113    C    0.29567003    0.90810993    0.89758082    -0.12470000
opls_700-114    C    0.29999996    0.88046991    0.74949041    0.05080000
opls_145-115    C    0.33387984    0.88816987    0.62680000    -0.12510000
opls_145-116    C    0.36311003    0.92284996    0.65547123    -0.13830000
opls_145-117    C    0.43536992    0.14732987    0.98810959    0.17930000
opls_142-118    C    0.26968006    0.84352003    0.72975068    0.06560000
opls_916-119    C    0.98867981    0.58849983    0.14706027    0.20140000
opls_916-120    C    0.92035993    0.54894003    0.14250959    0.17010000
opls_145-121    C    0.02140991    0.59509005    0.99073973    -0.17130000
opls_145-122    C    0.05187008    0.62905001    0.99227123    -0.12640000
opls_700-123    C    0.05054997    0.65821001    0.14198082    0.05400000
opls_145-124    C    0.01862989    0.65250983    0.29850137    -0.13790000
opls_145-125    C    0.98861995    0.61829993    0.30620000    -0.18740000
opls_145-126    C    0.91420991    0.57599989    0.00358082    -0.17190000
opls_145-127    C    0.88041988    0.57284996    0.00909041    -0.12630000
opls_700-128    C    0.85094998    0.54198988    0.14806027    0.05350000
opls_145-129    C    0.85598000    0.51455003    0.28147945    -0.13790000
opls_145-130    C    0.88994001    0.51807006    0.28026027    -0.17190000
opls_142-131    C    0.08173999    0.69464984    0.13301918    0.06570000
opls_145-132    C    0.14313002    0.73533999    0.94256986    0.17920000
opls_145-133    C    0.17535994    0.73661002    0.85661918    -0.17680000
opls_145-134    C    0.20702007    0.76940004    0.82160000    -0.17810000
opls_145-135    C    0.20670003    0.80162996    0.86783014    0.17860000
opls_145-136    C    0.17439997    0.80032995    0.94840000    -0.17790000
opls_145-137    C    0.14278001    0.76759988    0.98289041    -0.17980000
opls_750-138    N    0.75336003    0.19035992    0.02924110    -0.37270000
opls_750-139    N    0.88561004    0.32160989    0.98266027    -0.37250000
opls_750-140    N    0.16386992    0.40230994    0.85135890    -0.37270000
opls_239-141    N    0.44737012    0.40374000    0.14218082    -0.16710000
opls_750-142    N    0.29907002    0.41048998    0.97793973    -0.37260000
opls_750-143    N    0.80963988    0.56299981    0.02924110    -0.37270000
opls_750-144    N    0.67838995    0.56399984    0.98266027    -0.37270000
opls_750-145    N    0.59769001    0.76155985    0.85135890    -0.37260000
opls_239-146    N    0.59625997    0.04363001    0.14218082    -0.16710000
opls_750-147    N    0.58950985    0.88857984    0.97793973    -0.37270000
opls_750-148    N    0.43699995    0.24664000    0.02924110    -0.37270000
opls_750-149    N    0.43600010    0.11439000    0.98266027    -0.37270000
opls_750-150    N    0.23843994    0.83612995    0.85135890    -0.37260000
opls_239-151    N    0.95636992    0.55262999    0.14218082    -0.16710000
opls_750-152    N    0.11142000    0.70092992    0.97793973    -0.37270000
opls_144-153    H    0.72048995    0.20661002    0.27593973    0.11340000
opls_146-154    H    0.81664995    0.19799005    0.88533973    0.10900000
opls_146-155    H    0.87417985    0.25304985    0.86089041    0.10910000
opls_146-156    H    0.82227988    0.31390993    0.11312877    0.10600000
opls_146-157    H    0.76470000    0.25889989    0.13158904    0.10700000
opls_146-158    H    0.91040008    0.48617999    0.84669041    0.23140000
opls_146-159    H    0.91782988    0.43552998    0.78280000    0.11030000
opls_146-160    H    0.01847994    0.49165003    0.35655068    0.10990000
opls_146-161    H    0.01117995    0.54282989    0.40747123    0.08170000
opls_146-162    H    0.91815988    0.38881988    0.07156986    0.11270000
opls_146-163    H    0.98558000    0.34618989    0.77698904    0.11060000
opls_146-164    H    0.03123004    0.45938987    0.94978082    0.11080000
opls_144-165    H    0.92189992    0.30509995    0.84903014    0.10730000
opls_146-166    H    0.03727985    0.35802992    0.06227123    0.11000000
opls_146-167    H    0.09704002    0.36691991    0.99712877    0.10870000
opls_146-168    H    0.13265009    0.47040006    0.50801918    0.11010000
opls_146-169    H    0.07203980    0.46074982    0.55130959    0.11460000
opls_144-170    H    0.17704006    0.45111001    0.61415068    0.11320000
opls_146-171    H    0.42571008    0.45000000    0.86807945    0.23060000
opls_146-172    H    0.36748986    0.44371993    0.86896986    0.11010000
opls_146-173    H    0.32541986    0.34230994    0.41798904    0.11120000
opls_146-174    H    0.38401993    0.34926998    0.42958082    0.22420000
opls_146-175    H    0.39952985    0.33480987    0.89715890    0.23060000
opls_146-176    H    0.40535012    0.28281008    0.90238082    0.10600000
opls_146-177    H    0.50976985    0.34333993    0.38832055    0.10580000
opls_146-178    H    0.50445991    0.39574995    0.37752055    0.23060000
opls_144-179    H    0.28408996    0.36344992    0.26241918    0.11230000
opls_146-180    H    0.28799991    0.46395997    0.82158082    0.10860000
opls_146-181    H    0.23084999    0.46230994    0.76524932    0.11250000
opls_146-182    H    0.17508007    0.34886002    0.98467945    0.10860000
opls_146-183    H    0.23206987    0.35040997    0.03720000    0.11230000
opls_144-184    H    0.79339003    0.51387995    0.27593973    0.11340000
opls_146-185    H    0.80200988    0.61865985    0.88533973    0.10900000
opls_146-186    H    0.74694984    0.62112981    0.86089041    0.10910000
opls_146-187    H    0.68609000    0.50837004    0.11312877    0.10600000
opls_146-188    H    0.74110000    0.50579999    0.13158904    0.10710000
opls_146-189    H    0.51382012    0.42422008    0.84669041    0.23140000
opls_146-190    H    0.56447006    0.48230003    0.78280000    0.11030000
opls_146-191    H    0.50835011    0.52682999    0.35655068    0.10990000
opls_146-192    H    0.45716989    0.46834997    0.40747123    0.08170000
opls_146-193    H    0.61117999    0.52933983    0.07156986    0.11270000
opls_146-194    H    0.65380988    0.63938987    0.77698904    0.11060000
opls_146-195    H    0.54060993    0.57184003    0.94978082    0.11080000
opls_144-196    H    0.69490013    0.61680002    0.84903014    0.10730000
opls_146-197    H    0.64197003    0.67924991    0.06227123    0.11000000
opls_146-198    H    0.63307987    0.73011989    0.99712877    0.10860000
opls_146-199    H    0.52960008    0.66224999    0.50801918    0.11010000
opls_146-200    H    0.53925002    0.61128984    0.55130959    0.11470000
opls_144-201    H    0.54888994    0.72593005    0.61415068    0.11320000
opls_146-202    H    0.54999998    0.97570981    0.86807945    0.23060000
opls_146-203    H    0.55627989    0.92376997    0.86896986    0.11010000
opls_146-204    H    0.65769001    0.98310980    0.41798904    0.11120000
opls_146-205    H    0.65073000    0.03474993    0.42958082    0.22420000
opls_146-206    H    0.66518987    0.06471996    0.89715890    0.23060000
opls_146-207    H    0.71719008    0.12254007    0.90238082    0.10600000
opls_146-208    H    0.65665992    0.16642993    0.38832055    0.10580000
opls_146-209    H    0.60424996    0.10870989    0.37752055    0.23070000
opls_144-210    H    0.63654981    0.92063984    0.26241918    0.11230000
opls_146-211    H    0.53603992    0.82403998    0.82158082    0.10860000
opls_146-212    H    0.53768991    0.76853997    0.76524932    0.11250000
opls_146-213    H    0.65113983    0.82621986    0.98467945    0.10860000
opls_146-214    H    0.64958987    0.88165993    0.03720000    0.11220000
opls_144-215    H    0.48612002    0.27951002    0.27593973    0.11350000
opls_146-216    H    0.38133994    0.18335010    0.88533973    0.10900000
opls_146-217    H    0.37886994    0.12582006    0.86089041    0.10910000
opls_146-218    H    0.49163012    0.17772004    0.11312877    0.10600000
opls_146-219    H    0.49419987    0.23529985    0.13158904    0.10700000
opls_146-220    H    0.57578004    0.08959994    0.84669041    0.23140000
opls_146-221    H    0.51770005    0.08216998    0.78280000    0.11030000
opls_146-222    H    0.47316995    0.98151998    0.35655068    0.10990000
opls_146-223    H    0.53165003    0.98881988    0.40747123    0.08170000
opls_146-224    H    0.47065999    0.08184003    0.07156986    0.11270000
opls_146-225    H    0.36060999    0.01441997    0.77698904    0.11060000
opls_146-226    H    0.42815989    0.96876984    0.94978082    0.11090000
opls_144-227    H    0.38319996    0.07810003    0.84903014    0.10730000
opls_146-228    H    0.32074999    0.96271990    0.06227123    0.11000000
opls_146-229    H    0.26987997    0.90295994    0.99712877    0.10860000
opls_146-230    H    0.33775006    0.86734994    0.50801918    0.11010000
opls_146-231    H    0.38870991    0.92795981    0.55130959    0.11460000
opls_144-232    H    0.27407000    0.82295994    0.61415068    0.11320000
opls_146-233    H    0.02429004    0.57428992    0.86807945    0.23060000
opls_146-234    H    0.07622989    0.63250983    0.86896986    0.10900000
opls_146-235    H    0.01689000    0.67458000    0.41798904    0.11120000
opls_146-236    H    0.96524993    0.61597982    0.42958082    0.22430000
opls_146-237    H    0.93527991    0.60046991    0.89715890    0.23060000
opls_146-238    H    0.87746003    0.59464984    0.90238082    0.10600000
opls_146-239    H    0.83356986    0.49022987    0.38832055    0.10700000
opls_146-240    H    0.89128999    0.49553989    0.37752055    0.23060000
opls_144-241    H    0.07936009    0.71590998    0.26241918    0.11230000
opls_146-242    H    0.17595993    0.71200005    0.82158082    0.10860000
opls_146-243    H    0.23145997    0.76914983    0.76524932    0.11250000
opls_146-244    H    0.17377997    0.82491985    0.98467945    0.10860000
opls_146-245    H    0.11833989    0.76792983    0.03720000    0.11220000
