#======================================================================
# Crystal Data Generated By AuToFF
#----------------------------------------------------------------------

data_AuToFF_phase_1

_cell_length_a                         51.5000
_cell_length_b                         51.5000
_cell_length_c                         4.5000
_cell_angle_alpha                      90.00
_cell_angle_beta                       90.00
_cell_angle_gamma                      120.00
_symmetry_space_group_name_H-M_alt     'P 1'
_symmetry_space_group_IT_number        1

loop_
_space_group_symop_operation_xyz
   'x, y, z'

loop_
   _atom_site_label
   _atom_site_type_symbol
   _atom_site_fract_x
   _atom_site_fract_y
   _atom_site_fract_z
   _atom_site_charge
opls_700-0    C    0.44042997    0.20777995    0.63968889    0.06610000
opls_700-1    C    0.44440998    0.23657997    0.71766000    0.07340000
opls_145-2    C    0.47295993    0.26344996    0.68106000    -0.12400000
opls_145-3    C    0.47567005    0.29124999    0.69137111    -0.12080000
opls_700-4    C    0.45025998    0.29481006    0.74198889    0.07300000
opls_145-5    C    0.42240001    0.26814993    0.80404889    -0.12080000
opls_145-6    C    0.41950995    0.24029990    0.79016000    -0.12350000
opls_700-7    C    0.45185004    0.32326008    0.69198000    0.06920000
opls_145-8    C    0.47160011    0.34422003    0.47675111    -0.11750000
opls_145-9    C    0.47092990    0.36994989    0.41330000    -0.11090000
opls_700-10    C    0.45132006    0.37747002    0.55644889    0.06440000
opls_145-11    C    0.43209009    0.35721007    0.77235111    -0.11200000
opls_145-12    C    0.43233994    0.33132998    0.83806889    -0.12350000
opls_142-13    C    0.45215005    0.40509001    0.47246000    0.07460000
opls_145-14    C    0.43930996    0.44305992    0.57430000    0.20760000
opls_142-15    C    0.11433002    0.69780995    0.39537111    0.07490000
opls_700-16    C    0.14453995    0.72360999    0.41336000    0.05840000
opls_142-17    C    0.32042008    0.88059007    0.57532000    0.07490000
opls_700-18    C    0.29034008    0.85487007    0.53930000    0.05840000
opls_142-19    C    0.59599997    0.12363995    0.43519111    0.07450000
opls_700-20    C    0.62582002    0.14972004    0.46618000    0.05630000
opls_142-21    C    0.88601002    0.38976994    0.40932889    0.07470000
opls_700-22    C    0.85655011    0.36356003    0.45816000    0.05950000
opls_145-23    C    0.65249009    0.15065007    0.37626000    -0.12250000
opls_145-24    C    0.68005002    0.17612994    0.40688000    -0.12510000
opls_700-25    C    0.68323997    0.20319993    0.52926889    0.07290000
opls_145-26    C    0.65618004    0.20184008    0.62472000    -0.12490000
opls_145-27    C    0.62878994    0.17610999    0.59333111    -0.12240000
opls_145-28    C    0.83458997    0.36351003    0.64628000    -0.12370000
opls_145-29    C    0.46167995    0.46539990    0.39418889    -0.16580000
opls_145-30    C    0.46347999    0.49287998    0.36011111    -0.11040000
opls_700-31    C    0.44264999    0.49927007    0.49634000    0.06640000
opls_145-32    C    0.42022007    0.47675005    0.67427111    -0.11110000
opls_145-33    C    0.41880003    0.44946997    0.71414889    -0.15720000
opls_700-34    C    0.44421007    0.52947995    0.46780000    -0.00760000
opls_700-35    C    0.41419994    0.52831987    0.45438000    0.06600000
opls_700-36    C    0.47110990    0.55626990    0.47171111    -0.04760000
opls_700-37    C    0.47395010    0.58688000    0.45364000    0.07230000
opls_700-38    C    0.50078001    0.55756003    0.50473111    0.07420000
opls_145-39    C    0.50505004    0.53967988    0.71056000    -0.10560000
opls_145-40    C    0.53207003    0.54008997    0.72566000    -0.15770000
opls_145-41    C    0.55639998    0.55969006    0.54688000    0.21150000
opls_145-42    C    0.55232991    0.57840002    0.34944889    -0.15960000
opls_145-43    C    0.52514997    0.57753993    0.33003111    -0.10280000
opls_145-44    C    0.49550004    0.61006997    0.63074000    -0.11100000
opls_145-45    C    0.49871989    0.63832987    0.62289111    -0.15930000
opls_145-46    C    0.48046998    0.64480987    0.44208000    0.21060000
opls_145-47    C    0.45906999    0.62157998    0.26173111    -0.17350000
opls_145-48    C    0.45624997    0.59339005    0.26506889    -0.11190000
opls_145-49    C    0.40935005    0.54923990    0.60828000    -0.12220000
opls_145-50    C    0.38200002    0.54808005    0.60134000    -0.15870000
opls_145-51    C    0.35806987    0.52579993    0.43680000    0.21080000
opls_145-52    C    0.36260995    0.50458999    0.28386000    -0.16680000
opls_145-53    C    0.38999008    0.50565007    0.29405111    -0.11890000
opls_142-54    C    0.30448997    0.50527003    0.33866000    0.07550000
opls_700-55    C    0.27898007    0.50935005    0.39414889    0.05630000
opls_142-56    C    0.46122005    0.67853990    0.41708000    0.07420000
opls_700-57    C    0.46494996    0.70835001    0.45119111    0.05630000
opls_142-58    C    0.60991009    0.58159999    0.48165111    0.07540000
opls_700-59    C    0.63517009    0.57653007    0.46318889    0.05790000
opls_700-60    C    0.79089002    0.55666003    0.44894000    0.06720000
opls_145-61    C    0.80646994    0.33870998    0.67790889    -0.16530000
opls_700-62    C    0.79847004    0.31090008    0.53218000    0.07470000
opls_145-63    C    0.82131992    0.31100995    0.34928889    -0.12530000
opls_145-64    C    0.84872002    0.33644004    0.31068000    -0.12290000
opls_145-65    C    0.17075998    0.72169005    0.38106889    -0.12300000
opls_145-66    C    0.19897008    0.74659997    0.39948000    -0.14920000
opls_700-67    C    0.20303005    0.77583990    0.45108000    0.07290000
opls_145-68    C    0.17635013    0.77756007    0.48606000    -0.12530000
opls_145-69    C    0.14843008    0.75229006    0.47055111    -0.12290000
opls_145-70    C    0.26569996    0.85647992    0.42504000    -0.12300000
opls_145-71    C    0.23782998    0.83132987    0.39088000    -0.14920000
opls_700-72    C    0.23227990    0.80220989    0.47546000    0.07320000
opls_145-73    C    0.25728002    0.80080004    0.59372889    -0.12530000
opls_145-74    C    0.28493007    0.82617004    0.62222000    -0.12010000
opls_700-75    C    0.71191010    0.23049010    0.54978000    0.07360000
opls_700-76    C    0.76947002    0.28448995    0.55784889    0.06840000
opls_145-77    C    0.73905999    0.22979997    0.59054000    -0.12340000
opls_145-78    C    0.76639989    0.25540988    0.59396889    -0.11620000
opls_145-79    C    0.74208995    0.28525990    0.52437111    -0.13710000
opls_145-80    C    0.71476009    0.25951008    0.51900000    -0.12500000
opls_700-81    C    0.76470008    0.55979006    0.44142889    0.06590000
opls_145-82    C    0.76591003    0.58684996    0.53410000    -0.12240000
opls_145-83    C    0.74096992    0.58974994    0.53074889    -0.12330000
opls_700-84    C    0.71253999    0.56574988    0.43723111    0.07320000
opls_145-85    C    0.71123001    0.53842002    0.34824000    -0.12510000
opls_145-86    C    0.73636992    0.53572004    0.34549111    -0.12200000
opls_145-87    C    0.63269991    0.54828991    0.50801111    -0.11810000
opls_145-88    C    0.65725009    0.54451998    0.49484889    -0.12340000
opls_700-89    C    0.68644999    0.56915008    0.43434000    0.06920000
opls_145-90    C    0.68863992    0.59752993    0.38023111    -0.12500000
opls_145-91    C    0.66377002    0.60082004    0.39534000    -0.11990000
opls_145-92    C    0.28002001    0.53144003    0.58773111    -0.12290000
opls_145-93    C    0.25574998    0.53545996    0.62444000    -0.12010000
opls_700-94    C    0.22833995    0.51703990    0.47270889    0.07760000
opls_145-95    C    0.22697001    0.49406002    0.28554889    -0.12010000
opls_145-96    C    0.25162990    0.49068000    0.24910889    -0.11290000
opls_145-97    C    0.49278986    0.73495991    0.47812000    -0.12250000
opls_145-98    C    0.49486004    0.76258999    0.51088000    -0.16720000
opls_700-99    C    0.46868996    0.76565992    0.52016000    0.06920000
opls_145-100    C    0.44061994    0.73855989    0.48859111    -0.13840000
opls_145-101    C    0.43919007    0.71133003    0.45851111    -0.10940000
opls_700-102    C    0.20424009    0.52337999    0.48698889    0.07020000
opls_700-103    C    0.46978998    0.79364986    0.57496000    0.07470000
opls_145-104    C    0.21030003    0.55336006    0.53184889    -0.12040000
opls_145-105    C    0.18818005    0.56049992    0.49793111    -0.12350000
opls_700-106    C    0.15885008    0.53865007    0.42188000    0.03100000
opls_145-107    C    0.15224003    0.50877987    0.39311111    -0.11070000
opls_145-108    C    0.17402999    0.50105997    0.42569111    -0.12000000
opls_145-109    C    0.49013011    0.81476003    0.78725111    -0.15520000
opls_145-110    C    0.49036004    0.84114998    0.84445111    -0.12300000
opls_700-111    C    0.47129003    0.84914006    0.69506000    0.05630000
opls_145-112    C    0.45110004    0.82840007    0.48793111    -0.11700000
opls_145-113    C    0.44984014    0.80158008    0.43090000    -0.16720000
opls_145-114    C    0.41650995    0.18727000    0.45128889    -0.12140000
opls_145-115    C    0.41663987    0.16301994    0.32612000    -0.11540000
opls_700-116    C    0.43920009    0.15603008    0.39164889    0.05630000
opls_145-117    C    0.46196005    0.17510999    0.59126000    -0.12250000
opls_145-118    C    0.46268005    0.20001991    0.71039111    -0.12200000
opls_145-119    C    0.78839005    0.52821001    0.50380000    -0.12030000
opls_145-120    C    0.81333997    0.52519994    0.51168000    -0.11490000
opls_700-121    C    0.84231004    0.54986008    0.47438000    0.06200000
opls_145-122    C    0.84515994    0.57815988    0.42073111    -0.12260000
opls_145-123    C    0.82038002    0.58166995    0.40678889    -0.12840000
opls_142-124    C    0.13645993    0.54718005    0.37474889    0.05690000
opls_142-125    C    0.47254003    0.87753986    0.75234889    0.07420000
opls_145-126    C    0.08511999    0.53055999    0.29535111    0.22180000
opls_145-127    C    0.45711001    0.91246003    0.56606000    0.22580000
opls_142-128    C    0.43793995    0.12983990    0.25650000    0.08170000
opls_145-129    C    0.45849000    0.09670000    0.27574889    0.22590000
opls_142-130    C    0.86698999    0.54401999    0.49323111    0.08740000
opls_145-131    C    0.91878995    0.56151000    0.54042000    0.22140000
opls_145-132    C    0.08355008    0.55121007    0.48622000    -0.15730000
opls_145-133    C    0.05707004    0.55143989    0.51602889    -0.12150000
opls_700-134    C    0.03135001    0.53214002    0.35242000    0.06670000
opls_145-135    C    0.03466996    0.51495001    0.12699111    -0.12280000
opls_145-136    C    0.06060013    0.51318007    0.11055111    -0.15680000
opls_145-137    C    0.47510988    0.93710985    0.74726000    -0.15920000
opls_145-138    C    0.47742003    0.96468007    0.69632000    -0.12300000
opls_700-139    C    0.46357995    0.96944999    0.44888889    0.06630000
opls_145-140    C    0.44270988    0.94378985    0.29154889    -0.11070000
opls_145-141    C    0.43969991    0.91604991    0.34849111    -0.15860000
opls_145-142    C    0.43901999    0.07406989    0.08098889    -0.15860000
opls_145-143    C    0.43686012    0.04614004    0.07918889    -0.12070000
opls_700-144    C    0.45266992    0.03896004    0.28796000    0.06600000
opls_145-145    C    0.47468008    0.06283006    0.45574000    -0.12070000
opls_145-146    C    0.47795993    0.09108995    0.44416000    -0.15330000
opls_145-147    C    0.92008001    0.53970993    0.36300000    -0.16190000
opls_145-148    C    0.94604008    0.53815007    0.34642889    -0.12220000
opls_700-149    C    0.97156007    0.55729994    0.51369111    0.06670000
opls_145-150    C    0.96854992    0.57620003    0.72091111    -0.11700000
opls_145-151    C    0.94319994    0.57895988    0.72591111    -0.15960000
opls_700-152    C    0.44700004    0.00724008    0.33469111    -0.00430000
opls_700-153    C    0.47010014    0.00086008    0.36411111    -0.03140000
opls_700-154    C    0.50329996    0.02457001    0.31446889    0.06970000
opls_700-155    C    0.00179999    0.53095999    0.42018889    -0.03140000
opls_700-156    C    0.97459985    0.49949989    0.47092000    0.06740000
opls_145-157    C    0.52683005    0.02298011    0.45717111    -0.11000000
opls_145-158    C    0.55589992    0.04674003    0.44724889    -0.15760000
opls_145-159    C    0.56345006    0.07321003    0.29470000    0.20950000
opls_145-160    C    0.54117000    0.07316990    0.11394000    -0.17450000
opls_145-161    C    0.51204003    0.04912006    0.12050000    -0.12250000
opls_145-162    C    0.95196998    0.49459006    0.67611111    -0.11890000
opls_145-163    C    0.92612995    0.46689989    0.70529111    -0.16170000
opls_145-164    C    0.92171006    0.44195993    0.53926000    0.20820000
opls_145-165    C    0.94570012    0.44590004    0.36189111    -0.15160000
opls_145-166    C    0.97124995    0.47357989    0.32930889    -0.11420000
opls_700-167    C    0.00079013    0.55724007    0.46262889    -0.00410000
opls_700-168    C    0.02864994    0.58804008    0.41377111    0.06620000
opls_700-169    C    0.41452001    0.98304003    0.39377111    0.06610000
opls_145-170    C    0.04875993    0.59274005    0.18215111    -0.11000000
opls_145-171    C    0.07552002    0.61956004    0.14846000    -0.16550000
opls_145-172    C    0.08250003    0.64425987    0.33208000    0.21490000
opls_145-173    C    0.06178992    0.64018994    0.55240000    -0.16400000
opls_145-174    C    0.03599997    0.61293004    0.59492000    -0.11930000
opls_145-175    C    0.39019998    0.97969005    0.22297111    -0.11100000
opls_145-176    C    0.36170983    0.95539986    0.26133111    -0.15900000
opls_145-177    C    0.35578001    0.93300002    0.47017111    0.21030000
opls_145-178    C    0.37929999    0.93761007    0.66089111    -0.16630000
opls_145-179    C    0.40755990    0.96260990    0.62771111    -0.11100000
opls_750-180    N    0.43746011    0.41510003    0.62310000    -0.28120000
opls_750-181    N    0.59229999    0.09859999    0.32710000    -0.27920000
opls_750-182    N    0.89440985    0.41435990    0.55902000    -0.28870000
opls_750-183    N    0.33053985    0.52521989    0.43839111    -0.28410000
opls_750-184    N    0.48351990    0.67360989    0.45303111    -0.27940000
opls_750-185    N    0.58368996    0.55971001    0.55604000    -0.26260000
opls_750-186    N    0.11017006    0.52701001    0.28536000    -0.25870000
opls_750-187    N    0.45633002    0.88494004    0.59072000    -0.28240000
opls_750-188    N    0.45920009    0.12403008    0.31208889    -0.27890000
opls_750-189    N    0.89393001    0.56574001    0.54255111    -0.27950000
opls_750-190    N    0.10975000    0.67160991    0.31028889    -0.28280000
opls_750-191    N    0.32706001    0.90708002    0.47797111    -0.27990000
opls_146-192    H    0.49230996    0.26103002    0.61740889    0.10560000
opls_146-193    H    0.49721999    0.31145008    0.63813111    0.07500000
opls_146-194    H    0.40192001    0.26954992    0.83047111    0.06600000
opls_146-195    H    0.39716004    0.22046999    0.81950889    0.12260000
opls_146-196    H    0.48689003    0.33962006    0.34568000    0.09020000
opls_146-197    H    0.48657003    0.38478006    0.24208000    0.09020000
opls_146-198    H    0.41621009    0.36169009    0.89352889    0.11320000
opls_146-199    H    0.41693999    0.31653009    0.00970889    0.08990000
opls_144-200    H    0.46651989    0.41700988    0.28130889    0.06950000
opls_146-201    H    0.47880003    0.46202997    0.28181111    0.09170000
opls_146-202    H    0.48229993    0.50928996    0.22754000    0.11410000
opls_146-203    H    0.40349999    0.48033007    0.78788000    0.13630000
opls_146-204    H    0.40123000    0.43266000    0.85848889    0.06450000
opls_146-205    H    0.48613997    0.52461003    0.85008000    0.11290000
opls_146-206    H    0.53443990    0.52477998    0.87837111    0.10100000
opls_146-207    H    0.57074012    0.59374004    0.20370000    0.08850000
opls_146-208    H    0.52291999    0.59226987    0.16986000    0.04970000
opls_146-209    H    0.50959991    0.60620991    0.78666000    0.08640000
opls_146-210    H    0.51557994    0.65551988    0.76908889    0.09900000
opls_146-211    H    0.44431003    0.62552996    0.11450889    0.08320000
opls_146-212    H    0.43934002    0.57580003    0.12512000    0.11330000
opls_146-213    H    0.42709991    0.56694001    0.74010000    0.11540000
opls_146-214    H    0.37953006    0.56529002    0.72335111    0.11110000
opls_146-215    H    0.34410004    0.48653989    0.15769111    0.11890000
opls_146-216    H    0.39187004    0.48803988    0.17772889    0.11330000
opls_144-217    H    0.30032993    0.48486995    0.21950000    0.07010000
opls_144-218    H    0.43822004    0.66050998    0.37021111    0.06910000
opls_144-219    H    0.61431999    0.60422988    0.42486000    0.06870000
opls_146-220    H    0.78711001    0.60580991    0.61434889    0.12260000
opls_146-221    H    0.74346005    0.61115001    0.60706000    0.06900000
opls_146-222    H    0.68967004    0.51944998    0.27378889    0.10560000
opls_146-223    H    0.73514998    0.51501996    0.26284000    0.07200000
opls_146-224    H    0.61066003    0.52842996    0.55296889    0.10040000
opls_146-225    H    0.65449998    0.52239996    0.54609111    0.10500000
opls_146-226    H    0.71062989    0.61698988    0.32664000    0.08390000
opls_146-227    H    0.66652992    0.62314993    0.35389111    0.08250000
opls_146-228    H    0.30036994    0.54625988    0.71572000    0.08320000
opls_146-229    H    0.25801993    0.55344996    0.77360889    0.10040000
opls_146-230    H    0.20696999    0.48001998    0.15112000    0.10100000
opls_146-231    H    0.24911992    0.47300994    0.09446000    0.08280000
opls_146-232    H    0.51343996    0.73355992    0.47201111    0.14080000
opls_146-233    H    0.51723999    0.78247999    0.53616000    0.08390000
opls_146-234    H    0.41962985    0.73915988    0.50890889    0.06410000
opls_146-235    H    0.41678993    0.69142995    0.44099111    0.09260000
opls_146-236    H    0.23324006    0.57185993    0.57022889    0.06600000
opls_146-237    H    0.19448008    0.58411007    0.52502000    0.08570000
opls_146-238    H    0.12918997    0.49111004    0.34054000    0.10900000
opls_146-239    H    0.16775009    0.47753009    0.38780000    0.12490000
opls_146-240    H    0.50496999    0.80948989    0.91818000    0.07980000
opls_146-241    H    0.50619994    0.85619988    0.01344000    0.07980000
opls_146-242    H    0.43589007    0.83365004    0.36255111    0.07500000
opls_146-243    H    0.43341002    0.78674005    0.26366000    0.13550000
opls_146-244    H    0.39901005    0.19225001    0.38310000    0.08640000
opls_146-245    H    0.39854992    0.14932004    0.16808889    0.10140000
opls_146-246    H    0.47981004    0.17054007    0.66079111    0.09400000
opls_146-247    H    0.48082985    0.21507990    0.86126000    0.06640000
opls_146-248    H    0.76632996    0.50847001    0.54832000    0.10740000
opls_146-249    H    0.81050007    0.50287005    0.55534889    0.10140000
opls_146-250    H    0.86754994    0.59790997    0.38622000    0.11030000
opls_146-251    H    0.82296992    0.60390993    0.36214000    0.10940000
opls_144-252    H    0.14241992    0.57022003    0.43342000    0.07220000
opls_144-253    H    0.48891997    0.89255994    0.91786000    0.07010000
opls_144-254    H    0.41732986    0.11467992    0.13373111    0.06870000
opls_144-255    H    0.86136994    0.52054997    0.46461111    0.06980000
opls_146-256    H    0.10245993    0.56622006    0.62936889    0.11320000
opls_146-257    H    0.05698001    0.56682992    0.68006000    0.12000000
opls_146-258    H    0.01741993    0.50259987    0.95840000    0.08850000
opls_146-259    H    0.06207999    0.49777008    0.95166000    0.06860000
opls_146-260    H    0.48837010    0.93520000    0.92796000    0.08480000
opls_146-261    H    0.49116997    0.98259003    0.85434000    0.08460000
opls_146-262    H    0.42894990    0.94466989    0.11206000    0.11280000
opls_146-263    H    0.42430993    0.89698995    0.20798000    0.10970000
opls_146-264    H    0.42469988    0.07817995    0.93052000    0.08410000
opls_146-265    H    0.42238989    0.03071997    0.90708000    0.11570000
opls_146-266    H    0.48996999    0.06001999    0.60132000    0.11650000
opls_146-267    H    0.49535003    0.10874005    0.58310889    0.09250000
opls_146-268    H    0.90098999    0.52419008    0.22398000    0.07660000
opls_146-269    H    0.94623998    0.52179996    0.19456000    0.11600000
opls_146-270    H    0.98512995    0.58901990    0.89139111    0.11300000
opls_146-271    H    0.94243009    0.59517008    0.87930889    0.11320000
opls_146-272    H    0.52446993    0.00474997    0.59856889    0.11330000
opls_146-273    H    0.57255998    0.04487996    0.58352889    0.08270000
opls_146-274    H    0.54658004    0.09288007    0.97522000    0.10560000
opls_146-275    H    0.49525010    0.05045010    0.98404000    0.11280000
opls_146-276    H    0.95392009    0.51281998    0.81530000    0.11290000
opls_146-277    H    0.90872000    0.46477009    0.86016000    0.08410000
opls_146-278    H    0.94475999    0.42709008    0.23914000    0.08140000
opls_146-279    H    0.98706009    0.47255008    0.17696000    0.12230000
opls_146-280    H    0.04253004    0.57438009    0.02584000    0.11330000
opls_146-281    H    0.09115987    0.62149994    0.97294000    0.08990000
opls_146-282    H    0.06648003    0.65841986    0.70759111    0.07230000
opls_146-283    H    0.02336003    0.61246996    0.78886889    0.12760000
opls_146-284    H    0.39223012    0.99440004    0.04058000    0.12130000
opls_146-285    H    0.34359998    0.95277006    0.11382889    0.09280000
opls_146-286    H    0.37546007    0.92147005    0.83858000    0.10100000
opls_146-287    H    0.42508998    0.96621997    0.78604889    0.11270000
opls_144-288    H    0.09622996    0.70185992    0.46833111    0.06630000
opls_144-289    H    0.33712993    0.87574997    0.67324000    0.07100000
opls_144-290    H    0.57711987    0.12633993    0.51030000    0.06660000
opls_144-291    H    0.90013988    0.38741995    0.24016889    0.06920000
opls_146-292    H    0.65175009    0.13079999    0.27491111    0.11030000
opls_146-293    H    0.70005997    0.17589003    0.32666000    0.09250000
opls_146-294    H    0.65755002    0.22188994    0.72767111    0.10570000
opls_146-295    H    0.60853004    0.17640998    0.66770889    0.07540000
opls_146-296    H    0.83982998    0.38403007    0.77012889    0.07380000
opls_146-297    H    0.79000994    0.34010997    0.82374000    0.11030000
opls_146-298    H    0.81638993    0.29066995    0.22553111    0.11310000
opls_146-299    H    0.86428993    0.33462996    0.15498000    0.10940000
opls_146-300    H    0.16846013    0.69950007    0.34416889    0.07980000
opls_146-301    H    0.21868000    0.74378990    0.36980889    0.11110000
opls_146-302    H    0.17821005    0.79935991    0.53490889    0.09880000
opls_146-303    H    0.12869002    0.75494004    0.50282000    0.08130000
opls_146-304    H    0.26869007    0.87841004    0.36011111    0.09020000
opls_146-305    H    0.21970000    0.83410990    0.29384000    0.10110000
opls_146-306    H    0.25429993    0.77904997    0.66720000    0.07700000
opls_146-307    H    0.30335989    0.82364988    0.71394000    0.06410000
opls_146-308    H    0.73803990    0.20804990    0.61477111    0.09880000
opls_146-309    H    0.78665992    0.25348994    0.61763111    0.10570000
opls_146-310    H    0.74401998    0.30737006    0.49201111    0.10040000
opls_146-311    H    0.69422008    0.26051007    0.47482889    0.11030000
