#======================================================================
# Crystal Data Generated By AuToFF
#----------------------------------------------------------------------

data_AuToFF_phase_1

_cell_length_a                         18.3370
_cell_length_b                         18.3930
_cell_length_c                         3.6560
_cell_angle_alpha                      105.57
_cell_angle_beta                       82.26
_cell_angle_gamma                      119.72
_symmetry_space_group_name_H-M_alt     'P 1'
_symmetry_space_group_IT_number        1

loop_
_space_group_symop_operation_xyz
   'x, y, z'

loop_
   _atom_site_label
   _atom_site_type_symbol
   _atom_site_fract_x
   _atom_site_fract_y
   _atom_site_fract_z
   _atom_site_charge
opls_700-0    C    0.80163007    0.26068007    0.50811089    -0.08100000
opls_700-1    C    0.80163034    0.33488009    0.48812116    -0.08100000
opls_700-2    C    0.72537988    0.33470994    0.47808939    -0.08670000
opls_700-3    C    0.65020008    0.26052005    0.48940176    -0.08590000
opls_700-4    C    0.65019992    0.18547967    0.50934037    -0.08590000
opls_700-5    C    0.72538006    0.18553990    0.51940054    -0.08670000
opls_234-6    C    0.70350987    0.09872991    0.53425085    0.45450000
opls_234-7    C    0.58408980    0.09855995    0.51447125    0.45450000
opls_234-8    C    0.58408971    0.28213970    0.48536122    0.45450000
opls_234-9    C    0.70351015    0.39992000    0.46361104    0.45450000
opls_234-10    C    0.88934991    0.28219983    0.51365065    0.45450000
opls_234-11    C    0.88934974    0.39999984    0.48114180    0.45450000
opls_145-12    C    0.57243024    0.41292013    0.48159043    0.17080000
opls_145-13    C    0.60598009    0.50038004    0.66859087    -0.16240000
opls_145-14    C    0.56182003    0.54478967    0.68110148    -0.12180000
opls_700-15    C    0.48252006    0.50283006    0.50871001    0.07300000
opls_145-16    C    0.44886970    0.41517971    0.32345016    -0.12200000
opls_145-17    C    0.49303024    0.37084995    0.31162953    -0.16520000
opls_700-18    C    0.43595009    0.55032995    0.51158921    0.07070000
opls_145-19    C    0.34774005    0.50803959    0.51934943    -0.16760000
opls_700-20    C    0.30315994    0.55077011    0.50199187    0.06470000
opls_145-21    C    0.34774019    0.63753999    0.48389039    -0.16760000
opls_700-22    C    0.43594993    0.68236997    0.49019964    0.07070000
opls_145-23    C    0.47930003    0.63774961    0.50052956    -0.17280000
opls_700-24    C    0.20997011    0.50475009    0.50275001    0.06670000
opls_700-25    C    0.48252003    0.77586003    0.49230083    0.07240000
opls_145-26    C    0.56181996    0.81221991    0.31860038    -0.12180000
opls_145-27    C    0.60598023    0.90026023    0.33038125    -0.16180000
opls_145-28    C    0.57242976    0.95456971    0.51794106    0.21500000
opls_145-29    C    0.49302978    0.91821960    0.68921095    -0.16520000
opls_145-30    C    0.44886990    0.83027982    0.67812006    -0.12200000
opls_145-31    C    0.16511024    0.54616018    0.71031089    -0.12200000
opls_145-32    C    0.07742022    0.50281012    0.71096113    -0.16460000
opls_145-33    C    0.03269020    0.41720011    0.50420948    0.19100000
opls_145-34    C    0.07741994    0.37578002    0.29671958    -0.16460000
opls_145-35    C    0.16511037    0.41904005    0.29593022    -0.12200000
opls_542-36    N    0.61785992    0.04722979    0.52689952    -0.17370000
opls_542-37    N    0.61785982    0.36682968    0.47237926    -0.20170000
opls_542-38    N    0.94072973    0.36646980    0.49697173    -0.17970000
opls_236-39    O    0.50919998    0.07369998    0.49774974    -0.38220000
opls_236-40    O    0.75367967    0.07526978    0.56194116    -0.38740000
opls_236-41    O    0.91433010    0.23356001    0.54031024    -0.37080000
opls_236-42    O    0.91432986    0.47331006    0.45408185    -0.37090000
opls_236-43    O    0.75368016    0.47291975    0.43509161    -0.38870000
opls_236-44    O    0.50919970    0.23302972    0.50332925    -0.38220000
opls_146-45    H    0.66537034    0.53412015    0.81581062    0.12380000
opls_146-46    H    0.58923997    0.61154993    0.83465036    0.12520000
opls_146-47    H    0.38934993    0.38105980    0.17659953    0.12400000
opls_146-48    H    0.46557028    0.30405998    0.16030110    0.12560000
opls_146-49    H    0.31339981    0.44203983    0.54711924    0.12090000
opls_146-50    H    0.31339992    0.66961993    0.45667995    0.12090000
opls_146-51    H    0.54711037    0.67123998    0.49997019    0.12370000
opls_146-52    H    0.58924025    0.77255011    0.16460002    0.12380000
opls_146-53    H    0.66536025    0.92516986    0.18217905    0.12450000
opls_146-54    H    0.46556997    0.95788970    0.84099085    0.12560000
opls_146-55    H    0.38935006    0.80560960    0.82595029    0.12100000
opls_146-56    H    0.19784030    0.61155021    0.87876121    0.11950000
opls_146-57    H    0.04452978    0.53562985    0.87991970    0.12430000
opls_146-58    H    0.04452973    0.31046990    0.12830050    0.12360000
opls_146-59    H    0.19785003    0.38598014    0.12694041    0.11950000
