#======================================================================
# Crystal Data Generated By AuToFF
#----------------------------------------------------------------------

data_AuToFF_phase_1

_cell_length_a                         24.3400
_cell_length_b                         24.3400
_cell_length_c                         3.4300
_cell_angle_alpha                      90.00
_cell_angle_beta                       90.00
_cell_angle_gamma                      120.00
_symmetry_space_group_name_H-M_alt     'P 1'
_symmetry_space_group_IT_number        1

loop_
_space_group_symop_operation_xyz
   'x, y, z'

loop_
   _atom_site_label
   _atom_site_type_symbol
   _atom_site_fract_x
   _atom_site_fract_y
   _atom_site_fract_z
   _atom_site_charge
opls_641-0    N    0.71143000    0.31414019    0.21965889    -0.38020000
opls_750-1    N    0.00971007    0.54949984    0.75495918    -0.26970000
opls_520-2    N    0.29099996    0.60216015    0.35613994    -0.37980000
opls_641-3    N    0.68585988    0.39729001    0.21965889    -0.38020000
opls_750-4    N    0.45049972    0.46020980    0.75495918    -0.26970000
opls_520-5    N    0.39783989    0.68884001    0.35613994    -0.37980000
opls_641-6    N    0.60270971    0.28856979    0.21965889    -0.38020000
opls_750-7    N    0.53978997    0.99028989    0.75495918    -0.26970000
opls_520-8    N    0.31115974    0.70899983    0.35613994    -0.37980000
opls_642-9    C    0.73128001    0.37667998    0.22006997    0.34540000
opls_567-10    C    0.79824996    0.42231010    0.16204082    -0.06000000
opls_716-11    C    0.82167970    0.48638981    0.11676968    -0.16400000
opls_716-12    C    0.88456986    0.51717012    0.02535860    -0.16400000
opls_567-13    C    0.90724996    0.47561988    0.00262974    -0.02690000
opls_142-14    C    0.97145998    0.49333984    0.88762099    0.07140000
opls_145-15    C    0.07299990    0.57110991    0.62490962    0.21390000
opls_145-16    C    0.11404006    0.63620010    0.58913120    -0.16940000
opls_523-17    C    0.17722014    0.65963995    0.48821866    -0.11350000
opls_700-18    C    0.20005987    0.61793979    0.41765889    0.00810000
opls_523-19    C    0.15799002    0.55251989    0.43307872    -0.12030000
opls_145-20    C    0.09496985    0.52921003    0.53339942    -0.14680000
opls_531-21    C    0.26802992    0.64235976    0.35604956    0.36540000
opls_642-22    C    0.62332002    0.35459978    0.22006997    0.34540000
opls_567-23    C    0.57768976    0.37593991    0.16204082    -0.06000000
opls_716-24    C    0.51361012    0.33529009    0.11676968    -0.16400000
opls_716-25    C    0.48282991    0.36740016    0.02535860    -0.16400000
opls_567-26    C    0.52437980    0.43162978    0.00262974    -0.02690000
opls_142-27    C    0.50665983    0.47811999    0.88762099    0.07140000
opls_145-28    C    0.42888996    0.50189003    0.62490962    0.21390000
opls_145-29    C    0.36380008    0.47784009    0.58913120    -0.16940000
opls_523-30    C    0.34035985    0.51758001    0.48821866    -0.11350000
opls_700-31    C    0.38205994    0.58211989    0.41765889    0.00810000
opls_523-32    C    0.44747990    0.60547007    0.43307872    -0.12030000
opls_145-33    C    0.47079005    0.56576005    0.53339942    -0.14680000
opls_531-34    C    0.35763972    0.62566974    0.35604956    0.36540000
opls_642-35    C    0.64539973    0.26871976    0.22006997    0.34540000
opls_567-36    C    0.62405987    0.20174998    0.16204082    -0.06000000
opls_716-37    C    0.66471017    0.17832010    0.11676968    -0.16400000
opls_716-38    C    0.63260006    0.11543019    0.02535860    -0.16400000
opls_567-39    C    0.56837000    0.09274987    0.00262974    -0.02690000
opls_142-40    C    0.52188019    0.02854017    0.88762099    0.07140000
opls_145-41    C    0.49811014    0.92700007    0.62490962    0.21390000
opls_145-42    C    0.52215986    0.88595981    0.58913120    -0.16940000
opls_523-43    C    0.48242002    0.82278005    0.48821866    -0.11350000
opls_700-44    C    0.41787995    0.79993985    0.41765889    0.00810000
opls_523-45    C    0.39453008    0.84201003    0.43307872    -0.12030000
opls_145-46    C    0.43424010    0.90502992    0.53339942    -0.14680000
opls_531-47    C    0.37433012    0.73197002    0.35604956    0.36540000
opls_633-48    S    0.85281025    0.39876019    0.09828863    0.08430000
opls_633-49    S    0.60123994    0.45405013    0.09828863    0.08430000
opls_633-50    S    0.54595005    0.14719015    0.09828863    0.08430000
opls_570-51    H    0.79387970    0.50955972    0.13962099    0.13020000
opls_570-52    H    0.91225005    0.56745984    0.96992128    0.13020000
opls_144-53    H    0.98565996    0.45813997    0.91639067    0.11140000
opls_146-54    H    0.09744992    0.66889985    0.65216910    0.13110000
opls_526-55    H    0.20838992    0.71035995    0.47625948    0.13110000
opls_526-56    H    0.17386994    0.51915977    0.37332945    0.13130000
opls_146-57    H    0.06414995    0.47853984    0.53834111    0.14080000
opls_570-58    H    0.49044024    0.28432008    0.13962099    0.13020000
opls_570-59    H    0.43254005    0.34479004    0.96992128    0.13020000
opls_144-60    H    0.54185970    0.52751973    0.91639067    0.11140000
opls_146-61    H    0.33109995    0.42854994    0.65216910    0.13110000
opls_526-62    H    0.28963980    0.49802980    0.47625948    0.13110000
opls_526-63    H    0.48083977    0.65470993    0.37332945    0.13130000
opls_146-64    H    0.52145993    0.58561008    0.53834111    0.14080000
opls_570-65    H    0.71568007    0.20612020    0.13962099    0.13020000
opls_570-66    H    0.65520990    0.08775012    0.96992128    0.13020000
opls_144-67    H    0.47248010    0.01433982    0.91639067    0.11140000
opls_146-68    H    0.57144989    0.90254973    0.65216910    0.13110000
opls_526-69    H    0.50197005    0.79160978    0.47625948    0.13110000
opls_526-70    H    0.34529005    0.82612982    0.37332945    0.13130000
opls_146-71    H    0.41439012    0.93585008    0.53834111    0.14080000
