#======================================================================
# Crystal Data Generated By AuToFF
#----------------------------------------------------------------------

data_AuToFF_phase_1

_cell_length_a                         37.5330
_cell_length_b                         37.5330
_cell_length_c                         6.9800
_cell_angle_alpha                      90.00
_cell_angle_beta                       90.00
_cell_angle_gamma                      120.00
_symmetry_space_group_name_H-M_alt     'P 1'
_symmetry_space_group_IT_number        1

loop_
_space_group_symop_operation_xyz
   'x, y, z'

loop_
   _atom_site_label
   _atom_site_type_symbol
   _atom_site_fract_x
   _atom_site_fract_y
   _atom_site_fract_z
   _atom_site_charge
opls_531-0    C    0.95787012    0.97779017    0.24106017    0.31420000
opls_700-1    C    0.91447002    0.95492997    0.24001003    0.04100000
opls_523-2    C    0.02572999    0.91667992    0.20582951    -0.19610000
opls_145-3    C    0.04847009    0.89624000    0.20350000    -0.22080000
opls_700-4    C    0.09127989    0.91768993    0.23856017    0.10180000
opls_145-5    C    0.11074011    0.96055996    0.27096991    -0.22020000
opls_523-6    C    0.08810010    0.98111002    0.27180946    -0.19610000
opls_142-7    C    0.11591007    0.89903992    0.23793983    -0.11000000
opls_141-8    C    0.10665012    0.85976016    0.30787966    0.03910000
opls_700-9    C    0.13640018    0.84670014    0.30981948    0.06010000
opls_145-10    C    0.12479994    0.80443003    0.30996991    -0.19590000
opls_145-11    C    0.15406010    0.79154013    0.31481948    -0.22080000
opls_423-12    C    0.06977004    0.83445015    0.37482951    0.25770000
opls_531-13    C    0.37547002    0.68887998    0.24106017    0.31420000
opls_700-14    C    0.41885999    0.71174018    0.24001003    0.04100000
opls_523-15    C    0.30760999    0.74998992    0.20582951    -0.19610000
opls_145-16    C    0.28487003    0.77042000    0.20350000    -0.22080000
opls_700-17    C    0.24205997    0.74897007    0.23856017    0.09790000
opls_145-18    C    0.22258989    0.70610004    0.27096991    -0.22030000
opls_523-19    C    0.24524002    0.68554998    0.27180946    -0.19610000
opls_142-20    C    0.21742006    0.76762993    0.23793983    -0.11000000
opls_141-21    C    0.22667989    0.80690999    0.30787966    0.03910000
opls_700-22    C    0.19693010    0.81997002    0.30981948    0.05590000
opls_145-23    C    0.20853006    0.86222997    0.30996991    -0.19580000
opls_145-24    C    0.17928017    0.87512018    0.31481948    -0.19610000
opls_423-25    C    0.26357010    0.83222000    0.37482951    0.25770000
opls_531-26    C    0.02221009    0.98008001    0.24106017    0.31420000
opls_700-27    C    0.04507005    0.95954995    0.24001003    0.02600000
opls_523-28    C    0.08331993    0.10903988    0.20582951    -0.22070000
opls_145-29    C    0.10376007    0.15222001    0.20350000    -0.22080000
opls_700-30    C    0.08231000    0.17358011    0.23856017    0.09790000
opls_145-31    C    0.03944003    0.15017999    0.27096991    -0.22040000
opls_523-32    C    0.01888998    0.10697986    0.27180946    -0.19610000
opls_142-33    C    0.10095988    0.21687992    0.23793983    -0.11000000
opls_141-34    C    0.14024003    0.24688990    0.30787966    0.03910000
opls_700-35    C    0.15331000    0.28971008    0.30981948    0.05890000
opls_145-36    C    0.19557019    0.32037011    0.30996991    -0.19590000
opls_145-37    C    0.20846017    0.36251009    0.31481948    -0.22080000
opls_423-38    C    0.16555018    0.23532012    0.37482951    0.25780000
opls_531-39    C    0.31112019    0.68659015    0.24106017    0.31420000
opls_700-40    C    0.28826008    0.70711990    0.24001003    0.04100000
opls_523-41    C    0.25001007    0.55762012    0.20582951    -0.19610000
opls_145-42    C    0.22958005    0.51443999    0.20350000    -0.22080000
opls_700-43    C    0.25103014    0.49309004    0.23856017    0.09800000
opls_145-44    C    0.29390011    0.51649016    0.27096991    -0.22040000
opls_523-45    C    0.31445015    0.55968014    0.27180946    -0.19600000
opls_142-46    C    0.23236998    0.44978992    0.23793983    -0.11000000
opls_141-47    C    0.19309995    0.41977995    0.30787966    0.03910000
opls_700-48    C    0.18003014    0.37696007    0.30981948    0.06010000
opls_145-49    C    0.13776994    0.34628989    0.30996991    -0.19590000
opls_145-50    C    0.12487996    0.30414991    0.31481948    -0.22040000
opls_423-51    C    0.16778010    0.43135003    0.37482951    0.25770000
opls_531-52    C    0.01991994    0.04213013    0.24106017    0.31420000
opls_700-53    C    0.04046006    0.08552992    0.24001003    0.04100000
opls_523-54    C    0.89095992    0.97427005    0.20582951    -0.19610000
opls_145-55    C    0.84778010    0.95153014    0.20350000    -0.22080000
opls_700-56    C    0.82642011    0.90872011    0.23856017    0.10180000
opls_145-57    C    0.84982012    0.88926005    0.27096991    -0.22040000
opls_523-58    C    0.89302003    0.91189997    0.27180946    -0.19610000
opls_142-59    C    0.78312991    0.88409000    0.23793983    -0.11000000
opls_141-60    C    0.75310984    0.89334994    0.30787966    0.03910000
opls_700-61    C    0.71029010    0.86359994    0.30981948    0.06010000
opls_145-62    C    0.67963003    0.87520016    0.30996991    -0.19590000
opls_145-63    C    0.63748999    0.84593994    0.31481948    -0.22080000
opls_423-64    C    0.76467993    0.93023003    0.37482951    0.25770000
opls_531-65    C    0.31341008    0.62454003    0.24106017    0.31420000
opls_700-66    C    0.29287993    0.58113992    0.24001003    0.02530000
opls_523-67    C    0.44237993    0.69238995    0.20582951    -0.19610000
opls_145-68    C    0.48556018    0.71513017    0.20350000    -0.22080000
opls_700-69    C    0.50692002    0.75793989    0.23856017    0.09790000
opls_145-70    C    0.48351016    0.77741010    0.27096991    -0.22040000
opls_523-71    C    0.44032009    0.75476003    0.27180946    -0.19610000
opls_142-72    C    0.55020996    0.78258015    0.23793983    -0.10670000
opls_141-73    C    0.58022002    0.77331990    0.30787966    0.03910000
opls_700-74    C    0.62304003    0.80306991    0.30981948    0.06010000
opls_145-75    C    0.65371011    0.79146999    0.30996991    -0.19590000
opls_145-76    C    0.69585013    0.82072007    0.31481948    -0.22040000
opls_423-77    C    0.56865993    0.73642997    0.37482951    0.25770000
opls_531-78    C    0.04213003    0.02221014    0.74106017    0.31420000
opls_700-79    C    0.08552998    0.04507003    0.74001003    0.04100000
opls_523-80    C    0.97427001    0.08332008    0.70582951    -0.19610000
opls_145-81    C    0.95152991    0.10376000    0.70350000    -0.22080000
opls_700-82    C    0.90872011    0.08231007    0.73856017    0.10180000
opls_145-83    C    0.88925989    0.03944004    0.77096991    -0.22040000
opls_523-84    C    0.91189990    0.01888998    0.77180946    -0.19610000
opls_142-85    C    0.88408993    0.10096008    0.73793983    -0.10990000
opls_141-86    C    0.89335003    0.14024014    0.80787966    0.03910000
opls_700-87    C    0.86359982    0.15329986    0.80981948    0.06010000
opls_145-88    C    0.87520006    0.19556997    0.80996991    -0.19590000
opls_145-89    C    0.84593990    0.20845987    0.81481948    -0.22080000
opls_423-90    C    0.93023012    0.16555016    0.87482951    0.25770000
opls_531-91    C    0.62454011    0.31112002    0.74106017    0.31420000
opls_700-92    C    0.58114016    0.28826013    0.74001003    0.02600000
opls_523-93    C    0.69239001    0.25001008    0.70582951    -0.19610000
opls_145-94    C    0.71512997    0.22958000    0.70350000    -0.22080000
opls_700-95    C    0.75794003    0.25102993    0.73856017    0.09790000
opls_145-96    C    0.77741011    0.29389996    0.77096991    -0.22040000
opls_523-97    C    0.75475998    0.31445002    0.77180946    -0.19610000
opls_142-98    C    0.78257994    0.23237007    0.73793983    -0.11000000
opls_141-99    C    0.77332011    0.19309001    0.80787966    0.03910000
opls_700-100    C    0.80306990    0.18002998    0.80981948    0.05590000
opls_145-101    C    0.79146994    0.13777003    0.80996991    -0.19590000
opls_145-102    C    0.82071998    0.12488013    0.81481948    -0.19610000
opls_423-103    C    0.73644002    0.16778000    0.87482951    0.25770000
opls_531-104    C    0.97778991    0.01991999    0.74106017    0.31420000
opls_700-105    C    0.95492995    0.04045005    0.74001003    0.02600000
opls_523-106    C    0.91668007    0.89096012    0.70582951    -0.19610000
opls_145-107    C    0.89623993    0.84777999    0.70350000    -0.22080000
opls_700-108    C    0.91769000    0.82641989    0.73856017    0.09800000
opls_145-109    C    0.96055997    0.84982001    0.77096991    -0.22040000
opls_523-110    C    0.98111002    0.89302014    0.77180946    -0.19610000
opls_142-111    C    0.89903998    0.78312992    0.73793983    -0.11000000
opls_141-112    C    0.85975997    0.75311010    0.80787966    0.03910000
opls_700-113    C    0.84669986    0.71028992    0.80981948    0.05890000
opls_145-114    C    0.80442981    0.67962989    0.80996991    -0.19590000
opls_145-115    C    0.79153983    0.63748991    0.81481948    -0.22080000
opls_423-116    C    0.83444997    0.76468018    0.87482951    0.25770000
opls_531-117    C    0.68887997    0.31341016    0.74106017    0.31430000
opls_700-118    C    0.71173992    0.29288010    0.74001003    0.04100000
opls_523-119    C    0.74998993    0.44237988    0.70582951    -0.19610000
opls_145-120    C    0.77041995    0.48556001    0.70350000    -0.22080000
opls_700-121    C    0.74897014    0.50692011    0.73856017    0.09800000
opls_145-122    C    0.70610005    0.48351014    0.77096991    -0.22040000
opls_523-123    C    0.68555001    0.44032016    0.77180946    -0.19610000
opls_142-124    C    0.76763002    0.55021008    0.73793983    -0.10990000
opls_141-125    C    0.80690991    0.58022005    0.80787966    0.03910000
opls_700-126    C    0.81996986    0.62303993    0.80981948    0.05860000
opls_145-127    C    0.86223006    0.65371011    0.80996991    -0.19590000
opls_145-128    C    0.87512004    0.69585009    0.81481948    -0.22040000
opls_423-129    C    0.83222018    0.56866012    0.87482951    0.25770000
opls_531-130    C    0.98008022    0.95787018    0.74106017    0.31420000
opls_700-131    C    0.95955007    0.91447008    0.74001003    0.04100000
opls_523-132    C    0.10904008    0.02572995    0.70582951    -0.19610000
opls_145-133    C    0.15221990    0.04846986    0.70350000    -0.22080000
opls_700-134    C    0.17357989    0.09127989    0.73856017    0.09810000
opls_145-135    C    0.15017988    0.11073995    0.77096991    -0.22040000
opls_523-136    C    0.10697997    0.08810003    0.77180946    -0.19610000
opls_142-137    C    0.21687994    0.11591000    0.73793983    -0.10990000
opls_141-138    C    0.24689016    0.10665006    0.80787966    0.03910000
opls_700-139    C    0.28970990    0.13640006    0.80981948    0.06010000
opls_145-140    C    0.32037012    0.12480014    0.80996991    -0.19590000
opls_145-141    C    0.36251001    0.15406006    0.81481948    -0.22080000
opls_423-142    C    0.23532007    0.06976997    0.87482951    0.25790000
opls_531-143    C    0.68658992    0.37545997    0.74106017    0.31420000
opls_700-144    C    0.70712007    0.41886008    0.74001003    0.02530000
opls_523-145    C    0.55762007    0.30761005    0.70582951    -0.19610000
opls_145-146    C    0.51443997    0.28487014    0.70350000    -0.22080000
opls_700-147    C    0.49309011    0.24206011    0.73856017    0.09790000
opls_145-148    C    0.51648984    0.22258990    0.77096991    -0.22030000
opls_523-149    C    0.55967991    0.24523997    0.77180946    -0.19600000
opls_142-150    C    0.44979019    0.21742016    0.73793983    -0.11000000
opls_141-151    C    0.41977998    0.22668010    0.80787966    0.03910000
opls_700-152    C    0.37695997    0.19693009    0.80981948    0.05890000
opls_145-153    C    0.34630001    0.20853001    0.80996991    -0.19590000
opls_145-154    C    0.30414987    0.17927993    0.81481948    -0.22080000
opls_423-155    C    0.43134992    0.26355988    0.87482951    0.25770000
opls_520-156    N    0.98058003    0.95893003    0.24114040    -0.50700000
opls_753-157    N    0.03745010    0.81170994    0.43124928    -0.38800000
opls_520-158    N    0.35276010    0.70774012    0.24114040    -0.50440000
opls_753-159    N    0.29588989    0.85495991    0.43124928    -0.38800000
opls_520-160    N    0.04107007    0.02164991    0.24114040    -0.50690000
opls_753-161    N    0.18828999    0.22573992    0.43124928    -0.38790000
opls_520-162    N    0.29226006    0.64501994    0.24114040    -0.50700000
opls_753-163    N    0.14504999    0.44092993    0.43124928    -0.39160000
opls_520-164    N    0.97835016    0.01942006    0.24114040    -0.50690000
opls_753-165    N    0.77426018    0.96255014    0.43124928    -0.38800000
opls_520-166    N    0.35497984    0.64723994    0.24114040    -0.50420000
opls_753-167    N    0.55906998    0.70411017    0.43124928    -0.39140000
opls_520-168    N    0.01941997    0.04106997    0.74114040    -0.50700000
opls_753-169    N    0.96254990    0.18829006    0.93124928    -0.38800000
opls_520-170    N    0.64723990    0.29225988    0.74114040    -0.50690000
opls_753-171    N    0.70411011    0.14504009    0.93124928    -0.39170000
opls_520-172    N    0.95892993    0.97835009    0.74114040    -0.50670000
opls_753-173    N    0.81171001    0.77426008    0.93124928    -0.38800000
opls_520-174    N    0.70773994    0.35498006    0.74114040    -0.50700000
opls_753-175    N    0.85496013    0.55907007    0.93124928    -0.39250000
opls_520-176    N    0.02164984    0.98057994    0.74114040    -0.50690000
opls_753-177    N    0.22573982    0.03744986    0.93124928    -0.38800000
opls_520-178    N    0.64502016    0.35276006    0.74114040    -0.50440000
opls_753-179    N    0.44093018    0.29589014    0.93124928    -0.39260000
opls_526-180    H    0.99474993    0.89982996    0.18019054    0.20720000
opls_146-181    H    0.03326010    0.86555997    0.17288968    0.20720000
opls_146-182    H    0.14178010    0.97734008    0.29561032    0.20720000
opls_526-183    H    0.10346011    0.01214015    0.29704011    0.20710000
opls_146-184    H    0.23891994    0.88458009    0.30728940    0.20710000
opls_144-185    H    0.14432002    0.91699003    0.17874069    0.20720000
opls_146-186    H    0.14301995    0.76062014    0.32347994    0.20710000
opls_526-187    H    0.33857993    0.76683988    0.18019054    0.20710000
opls_146-188    H    0.30007019    0.80111018    0.17288968    0.20710000
opls_146-189    H    0.19156003    0.68933007    0.29561032    0.20720000
opls_526-190    H    0.22986991    0.65453000    0.29704011    0.20710000
opls_146-191    H    0.09441993    0.78209007    0.30728940    0.20710000
opls_144-192    H    0.18902012    0.74968012    0.17874069    0.20710000
opls_146-193    H    0.19031006    0.90605002    0.32347994    0.20710000
opls_526-194    H    0.10017016    0.09493015    0.18019054    0.20710000
opls_146-195    H    0.13444001    0.16770985    0.17288968    0.20720000
opls_146-196    H    0.02265996    0.16444016    0.29561032    0.20720000
opls_526-197    H    0.98785989    0.09133004    0.29704011    0.20710000
opls_146-198    H    0.11542015    0.35434015    0.30728940    0.20710000
opls_144-199    H    0.08301019    0.22733016    0.17874069    0.20710000
opls_146-200    H    0.23937997    0.38239993    0.32347994    0.20710000
opls_526-201    H    0.23316012    0.57174000    0.18019054    0.20710000
opls_146-202    H    0.19889011    0.49895999    0.17288968    0.20710000
opls_146-203    H    0.31067006    0.50223000    0.29561032    0.20710000
opls_526-204    H    0.34547013    0.57534011    0.29704011    0.20710000
opls_146-205    H    0.21791013    0.31233000    0.30728940    0.20720000
opls_144-206    H    0.25032009    0.43933999    0.17874069    0.20730000
opls_146-207    H    0.09396002    0.28426992    0.32347994    0.20710000
opls_526-208    H    0.90507993    0.00525004    0.18019054    0.20710000
opls_146-209    H    0.83228989    0.96674002    0.17288968    0.20720000
opls_146-210    H    0.83556009    0.85822007    0.29561032    0.20720000
opls_526-211    H    0.90866989    0.89653996    0.29704011    0.20720000
opls_146-212    H    0.64565992    0.76108992    0.30728940    0.20710000
opls_144-213    H    0.77266994    0.85568012    0.17874069    0.20710000
opls_146-214    H    0.61760008    0.85697993    0.32347994    0.20710000
opls_526-215    H    0.42825995    0.66142012    0.18019054    0.20710000
opls_146-216    H    0.50104012    0.69993013    0.17288968    0.20720000
opls_146-217    H    0.49776991    0.80843993    0.29561032    0.20710000
opls_526-218    H    0.42465997    0.77012989    0.29704011    0.20710000
opls_146-219    H    0.68766994    0.90557993    0.30728940    0.20710000
opls_144-220    H    0.56066006    0.81097988    0.17874069    0.20720000
opls_146-221    H    0.71573004    0.80968991    0.32347994    0.20710000
opls_526-222    H    0.00525007    0.10017004    0.68020057    0.20710000
opls_146-223    H    0.96673990    0.13444003    0.67288968    0.20720000
opls_146-224    H    0.85821990    0.02265992    0.79561032    0.20720000
opls_526-225    H    0.89653989    0.98785985    0.79704011    0.20710000
opls_146-226    H    0.76108992    0.11541991    0.80728940    0.20710000
opls_144-227    H    0.85567998    0.08300997    0.67874069    0.20710000
opls_146-228    H    0.85698005    0.23937986    0.82347994    0.20710000
opls_526-229    H    0.66142007    0.23316012    0.68020057    0.20710000
opls_146-230    H    0.69992997    0.19889012    0.67288968    0.20720000
opls_146-231    H    0.80843997    0.31066993    0.79561032    0.20710000
opls_526-232    H    0.77013009    0.34547000    0.79704011    0.20710000
opls_146-233    H    0.90558007    0.21790993    0.80728940    0.20710000
opls_144-234    H    0.81097988    0.25031988    0.67874069    0.20710000
opls_146-235    H    0.80968994    0.09394998    0.82347994    0.20720000
opls_526-236    H    0.89982999    0.90507015    0.68020057    0.20710000
opls_146-237    H    0.86555999    0.83229015    0.67288968    0.20720000
opls_146-238    H    0.97734020    0.83556015    0.79561032    0.20720000
opls_526-239    H    0.01214011    0.90866996    0.79704011    0.20710000
opls_146-240    H    0.88458001    0.64566016    0.80728940    0.20710000
opls_144-241    H    0.91698996    0.77267015    0.67874069    0.20710000
opls_146-242    H    0.76062003    0.61760007    0.82347994    0.20710000
opls_526-243    H    0.76683988    0.42826000    0.68020057    0.20710000
opls_146-244    H    0.80110989    0.50104001    0.67288968    0.20720000
opls_146-245    H    0.68932994    0.49777000    0.79561032    0.20710000
opls_526-246    H    0.65452987    0.42465989    0.79704011    0.20710000
opls_146-247    H    0.78208987    0.68767000    0.80728940    0.20710000
opls_144-248    H    0.74967991    0.56066001    0.67874069    0.20710000
opls_146-249    H    0.90605011    0.71573008    0.82347994    0.20730000
opls_526-250    H    0.09492993    0.99474996    0.68020057    0.20710000
opls_146-251    H    0.16771011    0.03325998    0.67288968    0.20710000
opls_146-252    H    0.16443991    0.14177993    0.79561032    0.20720000
opls_526-253    H    0.09133011    0.10346004    0.79704011    0.20710000
opls_146-254    H    0.35433994    0.23891993    0.80728940    0.20720000
opls_144-255    H    0.22733006    0.14431988    0.67874069    0.20710000
opls_146-256    H    0.38239992    0.14302007    0.82347994    0.20710000
opls_526-257    H    0.57174005    0.33857988    0.68020057    0.20710000
opls_146-258    H    0.49895988    0.30006987    0.67288968    0.20730000
opls_146-259    H    0.50223009    0.19156007    0.79561032    0.20710000
opls_526-260    H    0.57534003    0.22987011    0.79704011    0.20710000
opls_146-261    H    0.31233006    0.09442007    0.80728940    0.20710000
opls_144-262    H    0.43933994    0.18902012    0.67874069    0.20710000
opls_146-263    H    0.28426996    0.19031009    0.82347994    0.20710000
