#======================================================================
# Crystal Data Generated By AuToFF
#----------------------------------------------------------------------

data_AuToFF_phase_1

_cell_length_a                         44.7537
_cell_length_b                         30.2937
_cell_length_c                         4.6757
_cell_angle_alpha                      90.00
_cell_angle_beta                       90.00
_cell_angle_gamma                      90.00
_symmetry_space_group_name_H-M_alt     'P 1'
_symmetry_space_group_IT_number        1

loop_
_space_group_symop_operation_xyz
   'x, y, z'

loop_
   _atom_site_label
   _atom_site_type_symbol
   _atom_site_fract_x
   _atom_site_fract_y
   _atom_site_fract_z
   _atom_site_charge
opls_543-0    C    0.47488990    0.40548002    0.49381911    0.18810000
opls_700-1    C    0.44326011    0.41750991    0.47728896    -0.13120000
opls_543-2    C    0.43626002    0.46374989    0.49079924    0.18630000
opls_716-3    C    0.48458005    0.36207000    0.49418911    -0.17050000
opls_716-4    C    0.40692010    0.47793006    0.50563980    -0.19590000
opls_145-5    C    0.36563010    0.37041992    0.23423017    -0.16430000
opls_145-6    C    0.39404005    0.39274998    0.23639027    -0.09710000
opls_700-7    C    0.41720997    0.38516985    0.44259041    0.06120000
opls_145-8    C    0.35766004    0.33632009    0.42813910    0.19760000
opls_145-9    C    0.61860003    0.67487002    0.62202023    -0.12440000
opls_145-10    C    0.58990005    0.65134005    0.62819899    -0.09640000
opls_142-11    C    0.31345989    0.28347016    0.56625104    0.03230000
opls_700-12    C    0.28175994    0.26720011    0.52899031    -0.03660000
opls_145-13    C    0.26051991    0.28552009    0.33645016    -0.20570000
opls_166-14    C    0.27030011    0.23047003    0.69302992    0.26850000
opls_181-15    C    0.21734002    0.66959995    0.01642963    -0.19630000
opls_543-16    C    0.52511010    0.59451998    0.49381911    0.18810000
opls_700-17    C    0.55673989    0.58249009    0.47728896    -0.13110000
opls_543-18    C    0.56373998    0.53625011    0.49079924    0.18630000
opls_716-19    C    0.51541995    0.63793000    0.49418911    -0.17050000
opls_716-20    C    0.59307990    0.52206994    0.50563980    -0.19590000
opls_145-21    C    0.63436990    0.62958008    0.23423017    -0.16430000
opls_145-22    C    0.60595995    0.60725002    0.23639027    -0.09710000
opls_700-23    C    0.58279003    0.61483015    0.44259041    0.06120000
opls_145-24    C    0.64233996    0.66367991    0.42813910    0.19760000
opls_145-25    C    0.38139997    0.32512998    0.62202023    -0.12440000
opls_145-26    C    0.41009995    0.34865995    0.62819899    -0.09640000
opls_142-27    C    0.68654011    0.71652984    0.56625104    0.03230000
opls_700-28    C    0.71824006    0.73279989    0.52899031    -0.03660000
opls_145-29    C    0.73948009    0.71447991    0.33645016    -0.20570000
opls_166-30    C    0.72969989    0.76952997    0.69302992    0.26850000
opls_181-31    C    0.78265998    0.33040005    0.01642963    -0.19630000
opls_543-32    C    0.52511010    0.40548002    0.50618089    0.18810000
opls_700-33    C    0.55673989    0.41750991    0.52271104    -0.13120000
opls_543-34    C    0.56373998    0.46374989    0.50920076    0.18630000
opls_716-35    C    0.51541995    0.36207000    0.50581089    -0.17050000
opls_716-36    C    0.59307990    0.47793006    0.49436020    -0.19600000
opls_145-37    C    0.63436990    0.37041992    0.76576983    -0.16430000
opls_145-38    C    0.60595995    0.39274998    0.76360973    -0.09710000
opls_700-39    C    0.58279003    0.38516985    0.55740959    0.06120000
opls_145-40    C    0.64233996    0.33632009    0.57186090    0.19760000
opls_145-41    C    0.38139997    0.67487002    0.37797977    -0.12440000
opls_145-42    C    0.41009995    0.65134005    0.37180101    -0.09640000
opls_142-43    C    0.68654011    0.28347016    0.43374896    0.03230000
opls_700-44    C    0.71824006    0.26720011    0.47100969    -0.03660000
opls_145-45    C    0.73948009    0.28552009    0.66354984    -0.20570000
opls_166-46    C    0.72969989    0.23047003    0.30697008    0.26850000
opls_181-47    C    0.78265998    0.66959995    0.98357037    -0.19630000
opls_543-48    C    0.47488990    0.59451998    0.50618089    0.18810000
opls_700-49    C    0.44326011    0.58249009    0.52271104    -0.13120000
opls_543-50    C    0.43626002    0.53625011    0.50920076    0.18630000
opls_716-51    C    0.48458005    0.63793000    0.50581089    -0.17050000
opls_716-52    C    0.40692010    0.52206994    0.49436020    -0.19600000
opls_145-53    C    0.36563010    0.62958008    0.76576983    -0.16430000
opls_145-54    C    0.39404005    0.60725002    0.76360973    -0.09710000
opls_700-55    C    0.41720997    0.61483015    0.55740959    0.06120000
opls_145-56    C    0.35766004    0.66367991    0.57186090    0.19760000
opls_145-57    C    0.61860003    0.32512998    0.37797977    -0.12440000
opls_145-58    C    0.58990005    0.34865995    0.37180101    -0.09640000
opls_142-59    C    0.31345989    0.71652984    0.43374896    0.03230000
opls_700-60    C    0.28175994    0.73279989    0.47100969    -0.03660000
opls_145-61    C    0.26051991    0.71447991    0.66354984    -0.20570000
opls_166-62    C    0.27030011    0.76952997    0.30697008    0.26850000
opls_181-63    C    0.21734002    0.33040005    0.98357037    -0.19630000
opls_543-64    C    0.02511010    0.09451998    0.50618089    0.18810000
opls_700-65    C    0.05673989    0.08249009    0.52271104    -0.13120000
opls_543-66    C    0.06373998    0.03625011    0.50920076    0.18630000
opls_716-67    C    0.01541995    0.13793000    0.50581089    -0.17050000
opls_716-68    C    0.09307990    0.02206994    0.49436020    -0.19600000
opls_145-69    C    0.13436990    0.12958008    0.76576983    -0.16430000
opls_145-70    C    0.10595995    0.10725002    0.76360973    -0.09710000
opls_700-71    C    0.08279003    0.11483015    0.55740959    0.06120000
opls_145-72    C    0.14233996    0.16367991    0.57186090    0.19760000
opls_145-73    C    0.88139997    0.82512998    0.37797977    -0.12440000
opls_145-74    C    0.91009995    0.84865995    0.37180101    -0.09640000
opls_142-75    C    0.18654011    0.21652984    0.43374896    0.03230000
opls_700-76    C    0.21824006    0.23279989    0.47100969    -0.03660000
opls_145-77    C    0.23948009    0.21447991    0.66354984    -0.20570000
opls_166-78    C    0.22969989    0.26952997    0.30697008    0.26850000
opls_181-79    C    0.28265998    0.83040005    0.98357037    -0.19630000
opls_543-80    C    0.97488990    0.90548002    0.50618089    0.18810000
opls_700-81    C    0.94326011    0.91750991    0.52271104    -0.13120000
opls_543-82    C    0.93626002    0.96374989    0.50920076    0.18630000
opls_716-83    C    0.98458005    0.86207000    0.50581089    -0.17050000
opls_716-84    C    0.90692010    0.97793006    0.49436020    -0.19600000
opls_145-85    C    0.86563010    0.87041992    0.76576983    -0.16430000
opls_145-86    C    0.89404005    0.89274998    0.76360973    -0.09710000
opls_700-87    C    0.91720997    0.88516985    0.55740959    0.06120000
opls_145-88    C    0.85766004    0.83632009    0.57186090    0.19760000
opls_145-89    C    0.11860003    0.17487002    0.37797977    -0.12440000
opls_145-90    C    0.08990005    0.15134005    0.37180101    -0.09640000
opls_142-91    C    0.81345989    0.78347016    0.43374896    0.03230000
opls_700-92    C    0.78175994    0.76720011    0.47100969    -0.03660000
opls_145-93    C    0.76051991    0.78552009    0.66354984    -0.20570000
opls_166-94    C    0.77030011    0.73047003    0.30697008    0.26860000
opls_181-95    C    0.71734002    0.16959995    0.98357037    -0.19630000
opls_543-96    C    0.97488990    0.09451998    0.49381911    0.18810000
opls_700-97    C    0.94326011    0.08249009    0.47728896    -0.13120000
opls_543-98    C    0.93626002    0.03625011    0.49079924    0.18630000
opls_716-99    C    0.98458005    0.13793000    0.49418911    -0.17050000
opls_716-100    C    0.90692010    0.02206994    0.50563980    -0.19600000
opls_145-101    C    0.86563010    0.12958008    0.23423017    -0.16430000
opls_145-102    C    0.89404005    0.10725002    0.23639027    -0.09710000
opls_700-103    C    0.91720997    0.11483015    0.44259041    0.06130000
opls_145-104    C    0.85766004    0.16367991    0.42813910    0.19760000
opls_145-105    C    0.11860003    0.82512998    0.62202023    -0.12440000
opls_145-106    C    0.08990005    0.84865995    0.62819899    -0.09640000
opls_142-107    C    0.81345989    0.21652984    0.56625104    0.03230000
opls_700-108    C    0.78175994    0.23279989    0.52899031    -0.03650000
opls_145-109    C    0.76051991    0.21447991    0.33645016    -0.20570000
opls_166-110    C    0.77030011    0.26952997    0.69302992    0.26850000
opls_181-111    C    0.71734002    0.83040005    0.01642963    -0.19630000
opls_543-112    C    0.02511010    0.90548002    0.49381911    0.18810000
opls_700-113    C    0.05673989    0.91750991    0.47728896    -0.13120000
opls_543-114    C    0.06373998    0.96374989    0.49079924    0.18630000
opls_716-115    C    0.01541995    0.86207000    0.49418911    -0.17050000
opls_716-116    C    0.09307990    0.97793006    0.50563980    -0.19600000
opls_145-117    C    0.13436990    0.87041992    0.23423017    -0.16430000
opls_145-118    C    0.10595995    0.89274998    0.23639027    -0.09710000
opls_700-119    C    0.08279003    0.88516985    0.44259041    0.06120000
opls_145-120    C    0.14233996    0.83632009    0.42813910    0.19760000
opls_145-121    C    0.88139997    0.17487002    0.62202023    -0.12440000
opls_145-122    C    0.91009995    0.15134005    0.62819899    -0.09640000
opls_142-123    C    0.18654011    0.78347016    0.56625104    0.03230000
opls_700-124    C    0.21824006    0.76720011    0.52899031    -0.03660000
opls_145-125    C    0.23948009    0.78552009    0.33645016    -0.20570000
opls_166-126    C    0.22969989    0.73047003    0.69302992    0.26850000
opls_181-127    C    0.28265998    0.16959995    0.01642963    -0.19630000
opls_547-128    H    0.47074990    0.33282993    0.48638065    0.12260000
opls_547-129    H    0.38661005    0.45904000    0.52686015    0.12060000
opls_146-130    H    0.34938005    0.38046987    0.07525932    0.11640000
opls_146-131    H    0.39738010    0.41831998    0.07744081    0.12030000
opls_146-132    H    0.62227995    0.70087015    0.77682058    0.11860000
opls_146-133    H    0.57404997    0.66022011    0.79345980    0.11760000
opls_144-134    H    0.32657993    0.26693009    0.72840003    0.08950000
opls_146-135    H    0.26825000    0.31287991    0.20822978    0.12150000
opls_185-136    H    0.23675003    0.67388005    0.16143037    0.07380000
opls_185-137    H    0.22210007    0.64420985    0.85086083    0.08430000
opls_185-138    H    0.19823992    0.65801998    0.14784096    0.07370000
opls_547-139    H    0.52925010    0.66717007    0.48638065    0.12260000
opls_547-140    H    0.61338995    0.54096000    0.52686015    0.12060000
opls_146-141    H    0.65061995    0.61953013    0.07525932    0.11630000
opls_146-142    H    0.60261990    0.58168002    0.07744081    0.12030000
opls_146-143    H    0.37772005    0.29912985    0.77682058    0.11870000
opls_146-144    H    0.42595003    0.33977989    0.79345980    0.11760000
opls_144-145    H    0.67342007    0.73306991    0.72840003    0.08950000
opls_146-146    H    0.73175000    0.68712009    0.20822978    0.12140000
opls_185-147    H    0.76324997    0.32611995    0.16143037    0.07370000
opls_185-148    H    0.77789993    0.35579015    0.85086083    0.08430000
opls_185-149    H    0.80176008    0.34198002    0.14784096    0.07370000
opls_547-150    H    0.52925010    0.33282993    0.51361935    0.12260000
opls_547-151    H    0.61338995    0.45904000    0.47313985    0.12060000
opls_146-152    H    0.65061995    0.38046987    0.92474068    0.11630000
opls_146-153    H    0.60261990    0.41831998    0.92255919    0.12030000
opls_146-154    H    0.37772005    0.70087015    0.22317942    0.11870000
opls_146-155    H    0.42595003    0.66022011    0.20654020    0.11760000
opls_144-156    H    0.67342007    0.26693009    0.27159997    0.08950000
opls_146-157    H    0.73175000    0.31287991    0.79177022    0.12140000
opls_185-158    H    0.76324997    0.67388005    0.83856963    0.07370000
opls_185-159    H    0.77789993    0.64420985    0.14913917    0.08430000
opls_185-160    H    0.80176008    0.65801998    0.85215904    0.07370000
opls_547-161    H    0.47074990    0.66717007    0.51361935    0.12260000
opls_547-162    H    0.38661005    0.54096000    0.47313985    0.12060000
opls_146-163    H    0.34938005    0.61953013    0.92474068    0.11630000
opls_146-164    H    0.39738010    0.58168002    0.92255919    0.12030000
opls_146-165    H    0.62227995    0.29912985    0.22317942    0.11860000
opls_146-166    H    0.57404997    0.33977989    0.20654020    0.11760000
opls_144-167    H    0.32657993    0.73306991    0.27159997    0.08950000
opls_146-168    H    0.26825000    0.68712009    0.79177022    0.12140000
opls_185-169    H    0.23675003    0.32611995    0.83856963    0.07380000
opls_185-170    H    0.22210007    0.35579015    0.14913917    0.08430000
opls_185-171    H    0.19823992    0.34198002    0.85215904    0.07370000
opls_547-172    H    0.02925010    0.16717007    0.51361935    0.12260000
opls_547-173    H    0.11338995    0.04096000    0.47313985    0.12060000
opls_146-174    H    0.15061995    0.11953013    0.92474068    0.11630000
opls_146-175    H    0.10261990    0.08168002    0.92255919    0.12030000
opls_146-176    H    0.87772005    0.79912985    0.22317942    0.11860000
opls_146-177    H    0.92595003    0.83977989    0.20654020    0.11760000
opls_144-178    H    0.17342007    0.23306991    0.27159997    0.08950000
opls_146-179    H    0.23175000    0.18712009    0.79177022    0.12140000
opls_185-180    H    0.26324997    0.82611995    0.83856963    0.07370000
opls_185-181    H    0.27789993    0.85579015    0.14913917    0.08430000
opls_185-182    H    0.30176008    0.84198002    0.85215904    0.07370000
opls_547-183    H    0.97074990    0.83282993    0.51361935    0.12260000
opls_547-184    H    0.88661005    0.95904000    0.47313985    0.12060000
opls_146-185    H    0.84938005    0.88046987    0.92474068    0.11630000
opls_146-186    H    0.89738010    0.91831998    0.92255919    0.12030000
opls_146-187    H    0.12227995    0.20087015    0.22317942    0.11860000
opls_146-188    H    0.07404997    0.16022011    0.20654020    0.11760000
opls_144-189    H    0.82657993    0.76693009    0.27159997    0.08950000
opls_146-190    H    0.76825000    0.81287991    0.79177022    0.12140000
opls_185-191    H    0.73675003    0.17388005    0.83856963    0.07370000
opls_185-192    H    0.72210007    0.14420985    0.14913917    0.08430000
opls_185-193    H    0.69823992    0.15801998    0.85215904    0.07370000
opls_547-194    H    0.97074990    0.16717007    0.48638065    0.12270000
opls_547-195    H    0.88661005    0.04096000    0.52686015    0.12060000
opls_146-196    H    0.84938005    0.11953013    0.07525932    0.11630000
opls_146-197    H    0.89738010    0.08168002    0.07744081    0.12030000
opls_146-198    H    0.12227995    0.79912985    0.77682058    0.11860000
opls_146-199    H    0.07404997    0.83977989    0.79345980    0.11760000
opls_144-200    H    0.82657993    0.23306991    0.72840003    0.08950000
opls_146-201    H    0.76825000    0.18712009    0.20822978    0.12140000
opls_185-202    H    0.73675003    0.82611995    0.16143037    0.07370000
opls_185-203    H    0.72210007    0.85579015    0.85086083    0.08430000
opls_185-204    H    0.69823992    0.84198002    0.14784096    0.07370000
opls_547-205    H    0.02925010    0.83282993    0.48638065    0.12260000
opls_547-206    H    0.11338995    0.95904000    0.52686015    0.12060000
opls_146-207    H    0.15061995    0.88046987    0.07525932    0.11630000
opls_146-208    H    0.10261990    0.91831998    0.07744081    0.12030000
opls_146-209    H    0.87772005    0.20087015    0.77682058    0.11860000
opls_146-210    H    0.92595003    0.16022011    0.79345980    0.11760000
opls_144-211    H    0.17342007    0.76693009    0.72840003    0.08950000
opls_146-212    H    0.23175000    0.81287991    0.20822978    0.12140000
opls_185-213    H    0.26324997    0.17388005    0.16143037    0.07370000
opls_185-214    H    0.27789993    0.14420985    0.85086083    0.08430000
opls_185-215    H    0.30176008    0.15801998    0.14784096    0.07380000
opls_750-216    N    0.32832995    0.31732010    0.41493038    -0.24840000
opls_750-217    N    0.67167005    0.68267990    0.41493038    -0.24830000
opls_750-218    N    0.67167005    0.31732010    0.58506962    -0.24840000
opls_750-219    N    0.32832995    0.68267990    0.58506962    -0.24840000
opls_750-220    N    0.17167005    0.18267990    0.58506962    -0.24840000
opls_750-221    N    0.82832995    0.81732010    0.58506962    -0.24840000
opls_750-222    N    0.82832995    0.18267990    0.41493038    -0.24840000
opls_750-223    N    0.17167005    0.81732010    0.41493038    -0.24830000
opls_542-224    N    0.45532995    0.50000000    0.50000000    -0.38270000
opls_542-225    N    0.54467005    0.50000000    0.50000000    -0.38270000
opls_542-226    N    0.04467005    0.00000000    0.50000000    -0.38270000
opls_542-227    N    0.95532995    0.00000000    0.50000000    -0.38260000
opls_542-228    N    0.50000000    0.56665016    0.50000000    -0.38350000
opls_542-229    N    0.50000000    0.43334984    0.50000000    -0.38340000
opls_542-230    N    0.00000000    0.93334984    0.50000000    -0.38350000
opls_542-231    N    0.00000000    0.06665016    0.50000000    -0.38350000
opls_179-232    O    0.29059005    0.21051011    0.88537973    -0.20350000
opls_179-233    O    0.70940995    0.78948989    0.88537973    -0.20340000
opls_179-234    O    0.70940995    0.21051011    0.11462027    -0.20350000
opls_179-235    O    0.29059005    0.78948989    0.11462027    -0.20350000
opls_179-236    O    0.20940995    0.28948989    0.11462027    -0.20350000
opls_179-237    O    0.79059005    0.71051011    0.11462027    -0.20350000
opls_179-238    O    0.79059005    0.28948989    0.88537973    -0.20350000
opls_179-239    O    0.20940995    0.71051011    0.88537973    -0.20340000
F2_Co4+2-240    Co    0.50000000    0.50000000    0.50000000    0.64260000
F2_Co4+2-241    Co    0.00000000    0.00000000    0.50000000    0.64260000
