#======================================================================
# Crystal Data Generated By AuToFF
#----------------------------------------------------------------------

data_AuToFF_phase_1

_cell_length_a                         15.2400
_cell_length_b                         15.2400
_cell_length_c                         3.4400
_cell_angle_alpha                      90.00
_cell_angle_beta                       90.00
_cell_angle_gamma                      120.00
_symmetry_space_group_name_H-M_alt     'P 1'
_symmetry_space_group_IT_number        1

loop_
_space_group_symop_operation_xyz
   'x, y, z'

loop_
   _atom_site_label
   _atom_site_type_symbol
   _atom_site_fract_x
   _atom_site_fract_y
   _atom_site_fract_z
   _atom_site_charge
opls_750-0    N    0.04739991    0.53531951    0.50000000    0.00090000
opls_750-1    N    0.46467978    0.51208003    0.50000000    0.00090000
opls_750-2    N    0.48791993    0.95259970    0.50000000    0.00090000
opls_750-3    N    0.95259971    0.46467973    0.50000000    0.00090000
opls_750-4    N    0.53532022    0.48791997    0.50000000    0.00090000
opls_750-5    N    0.51208007    0.04740030    0.50000000    0.00090000
opls_142-6    C    0.12454006    0.51548958    0.50000000    0.01110000
opls_142-7    C    0.48450983    0.60904985    0.50000000    0.01110000
opls_142-8    C    0.39095006    0.87546967    0.50000000    0.01110000
opls_142-9    C    0.87547006    0.48450967    0.50000000    0.01110000
opls_142-10    C    0.51549017    0.39095015    0.50000000    0.01110000
opls_142-11    C    0.60904994    0.12453033    0.50000000    0.01110000
opls_700-12    C    0.22806996    0.59139976    0.50000000    0.00530000
opls_700-13    C    0.40859036    0.63667022    0.50000000    0.00530000
opls_700-14    C    0.36332984    0.77193002    0.50000000    0.01770000
opls_700-15    C    0.77192999    0.40858964    0.50000000    0.01770000
opls_700-16    C    0.59139980    0.36332978    0.50000000    0.00530000
opls_700-17    C    0.63667016    0.22806998    0.50000000    0.00530000
opls_145-18    C    0.25962961    0.69597969    0.50000000    -0.15040000
opls_145-19    C    0.30401979    0.56364982    0.50000000    -0.15040000
opls_145-20    C    0.43636006    0.74036973    0.50000000    -0.15560000
opls_145-21    C    0.74037039    0.30402031    0.50000000    -0.15040000
opls_145-22    C    0.69597988    0.43636003    0.50000000    -0.15560000
opls_145-23    C    0.56365044    0.25963027    0.50000000    -0.15550000
opls_144-24    H    0.10599012    0.44096974    0.50000000    0.04300000
opls_144-25    H    0.55902980    0.66502023    0.50000000    0.04310000
opls_144-26    H    0.33498008    0.89401003    0.50000000    0.04300000
opls_144-27    H    0.89400950    0.55902951    0.50000000    0.04310000
opls_144-28    H    0.44097020    0.33497977    0.50000000    0.04300000
opls_144-29    H    0.66501992    0.10598997    0.50000000    0.04300000
opls_146-30    H    0.28287964    0.48842989    0.50000000    0.08860000
opls_146-31    H    0.51157000    0.79444971    0.50000000    0.08850000
opls_146-32    H    0.20555982    0.71711964    0.50000000    0.08850000
opls_146-33    H    0.71712036    0.51157011    0.50000000    0.08850000
opls_146-34    H    0.48843033    0.20556014    0.50000000    0.08850000
opls_146-35    H    0.79444964    0.28287960    0.50000000    0.08850000
