#======================================================================
# Crystal Data Generated By AuToFF
#----------------------------------------------------------------------

data_AuToFF_phase_1

_cell_length_a                         52.9000
_cell_length_b                         53.9000
_cell_length_c                         3.8000
_cell_angle_alpha                      90.00
_cell_angle_beta                       75.00
_cell_angle_gamma                      90.00
_symmetry_space_group_name_H-M_alt     'P 1'
_symmetry_space_group_IT_number        1

loop_
_space_group_symop_operation_xyz
   'x, y, z'

loop_
   _atom_site_label
   _atom_site_type_symbol
   _atom_site_fract_x
   _atom_site_fract_y
   _atom_site_fract_z
   _atom_site_charge
opls_700-0    C    0.44607002    0.52283006    0.49026024    0.03550000
opls_700-1    C    0.94607002    0.02283006    0.49026024    0.03550000
opls_700-2    C    0.55392998    0.52283006    0.50973976    0.03550000
opls_700-3    C    0.05392998    0.02283006    0.50973976    0.03550000
opls_700-4    C    0.55392998    0.47716994    0.50973976    0.03550000
opls_700-5    C    0.05392998    0.97716994    0.50973976    0.03550000
opls_700-6    C    0.44607002    0.47716994    0.49026024    0.03550000
opls_700-7    C    0.94607002    0.97716994    0.49026024    0.03550000
opls_700-8    C    0.47303009    0.52283006    0.49249970    0.02450000
opls_700-9    C    0.97303009    0.02283006    0.49249970    0.02450000
opls_700-10    C    0.52697010    0.52283006    0.50750030    0.02450000
opls_700-11    C    0.02697014    0.02283006    0.50750847    0.02450000
opls_700-12    C    0.52697010    0.47716994    0.50750030    0.02450000
opls_700-13    C    0.02697014    0.97716994    0.50750847    0.02450000
opls_700-14    C    0.47303009    0.47716994    0.49249970    0.02450000
opls_700-15    C    0.97303009    0.97716994    0.49249970    0.02450000
opls_145-16    C    0.48695004    0.54491002    0.49837080    -0.08680000
opls_145-17    C    0.98695004    0.04491002    0.49837080    -0.08680000
opls_145-18    C    0.51304996    0.54491002    0.50162920    -0.08680000
opls_145-19    C    0.01304996    0.04491002    0.50162920    -0.08680000
opls_145-20    C    0.51304996    0.45508998    0.50162920    -0.08680000
opls_145-21    C    0.01304996    0.95508998    0.50162920    -0.08680000
opls_145-22    C    0.48695004    0.45508998    0.49837080    -0.08680000
opls_145-23    C    0.98695004    0.95508998    0.49837080    -0.08680000
opls_700-24    C    0.42962993    0.54582004    0.50477044    0.06630000
opls_700-25    C    0.92962993    0.04582004    0.50477044    0.06630000
opls_700-26    C    0.57037007    0.54582004    0.49522956    0.06620000
opls_700-27    C    0.07037007    0.04582004    0.49522956    0.06620000
opls_700-28    C    0.57037007    0.45417996    0.49522956    0.06620000
opls_700-29    C    0.07037007    0.95417996    0.49522956    0.06620000
opls_700-30    C    0.42962993    0.45417996    0.50477044    0.06630000
opls_700-31    C    0.92962993    0.95417996    0.50477044    0.06630000
opls_145-32    C    0.56162000    0.56616994    0.72448863    -0.12780000
opls_145-33    C    0.06162000    0.06616994    0.72448863    -0.12780000
opls_145-34    C    0.43838005    0.56616994    0.27550865    -0.12810000
opls_145-35    C    0.93838005    0.06616994    0.27550865    -0.12810000
opls_145-36    C    0.43838005    0.43383006    0.27550865    -0.12810000
opls_145-37    C    0.93838005    0.93383006    0.27550865    -0.12810000
opls_145-38    C    0.56162000    0.43383006    0.72448863    -0.12780000
opls_145-39    C    0.06162000    0.93383006    0.72448863    -0.12780000
opls_145-40    C    0.57710001    0.58727996    0.71383074    -0.17470000
opls_145-41    C    0.07710001    0.08727996    0.71383074    -0.17470000
opls_145-42    C    0.42289999    0.58727996    0.28616926    -0.17470000
opls_145-43    C    0.92289999    0.08727996    0.28616926    -0.17470000
opls_145-44    C    0.42289999    0.41272004    0.28616926    -0.17400000
opls_145-45    C    0.92289999    0.91272004    0.28616926    -0.17400000
opls_145-46    C    0.57710001    0.41272004    0.71383074    -0.17400000
opls_145-47    C    0.07710001    0.91272004    0.71383074    -0.17400000
opls_145-48    C    0.60241000    0.58840000    0.47841995    0.18770000
opls_145-49    C    0.10241000    0.08840000    0.47841995    0.18770000
opls_145-50    C    0.39759000    0.58840000    0.52158005    0.18770000
opls_145-51    C    0.89759000    0.08840000    0.52158005    0.18770000
opls_145-52    C    0.39759000    0.41160000    0.52158005    0.18770000
opls_145-53    C    0.89759000    0.91160000    0.52158005    0.18770000
opls_145-54    C    0.60241000    0.41160000    0.47841995    0.18770000
opls_145-55    C    0.10241000    0.91160000    0.47841995    0.18770000
opls_145-56    C    0.61182002    0.56782004    0.25954088    -0.17180000
opls_145-57    C    0.11182002    0.06782004    0.25954088    -0.17180000
opls_145-58    C    0.38817998    0.56782004    0.74045912    -0.17330000
opls_145-59    C    0.88817998    0.06782004    0.74045912    -0.17330000
opls_145-60    C    0.38817998    0.43217996    0.74045912    -0.17330000
opls_145-61    C    0.88817998    0.93217996    0.74045912    -0.17330000
opls_145-62    C    0.61182002    0.43217996    0.25954088    -0.17180000
opls_145-63    C    0.11182002    0.93217996    0.25954088    -0.17180000
opls_145-64    C    0.59597998    0.54684007    0.26452110    -0.12980000
opls_145-65    C    0.09597998    0.04684007    0.26452110    -0.12980000
opls_145-66    C    0.40403003    0.54684007    0.73548979    -0.12980000
opls_145-67    C    0.90403003    0.04684007    0.73548979    -0.12980000
opls_145-68    C    0.40403003    0.45315993    0.73548979    -0.12980000
opls_145-69    C    0.90403003    0.95315993    0.73548979    -0.12980000
opls_145-70    C    0.59597998    0.45315993    0.26452110    -0.12980000
opls_145-71    C    0.09597998    0.95315993    0.26452110    -0.12980000
opls_142-72    C    0.61176014    0.63147996    0.59127862    0.06410000
opls_142-73    C    0.11176014    0.13147996    0.59127862    0.06410000
opls_142-74    C    0.38825012    0.63147996    0.40871866    0.06410000
opls_142-75    C    0.88824010    0.13147996    0.40871866    0.06410000
opls_142-76    C    0.38825012    0.36852004    0.40871866    0.06410000
opls_142-77    C    0.88824010    0.86852004    0.40871866    0.06410000
opls_142-78    C    0.61176014    0.36852004    0.59127862    0.06410000
opls_142-79    C    0.11176014    0.86852004    0.59127862    0.06410000
opls_567-80    C    0.63040999    0.65184007    0.59057027    -0.02210000
opls_567-81    C    0.13040999    0.15184007    0.59057027    -0.02210000
opls_567-82    C    0.36959001    0.65184007    0.40942973    -0.01310000
opls_567-83    C    0.86959001    0.15184007    0.40942973    -0.02210000
opls_567-84    C    0.36959001    0.34815993    0.40942973    -0.01310000
opls_567-85    C    0.86959001    0.84815993    0.40942973    -0.02210000
opls_567-86    C    0.63040999    0.34815993    0.59057027    -0.02210000
opls_567-87    C    0.13040999    0.84815993    0.59057027    -0.02210000
opls_716-88    C    0.62202004    0.67484991    0.73246842    -0.18460000
opls_716-89    C    0.12202004    0.17484991    0.73246842    -0.18460000
opls_716-90    C    0.37798001    0.67484991    0.26752885    -0.18460000
opls_716-91    C    0.87798001    0.17484991    0.26752885    -0.18460000
opls_716-92    C    0.37798001    0.32514991    0.26752885    -0.18460000
opls_716-93    C    0.87798001    0.82515009    0.26752885    -0.18460000
opls_716-94    C    0.62202004    0.32514991    0.73246842    -0.18460000
opls_716-95    C    0.12202004    0.82515009    0.73246842    -0.18460000
opls_716-96    C    0.64244002    0.69086994    0.71179016    -0.18440000
opls_716-97    C    0.14244002    0.19086994    0.71179016    -0.18440000
opls_716-98    C    0.35755998    0.69086994    0.28820984    -0.18440000
opls_716-99    C    0.85755998    0.19086994    0.28820984    -0.18440000
opls_716-100    C    0.35755998    0.30913006    0.28820984    -0.18440000
opls_716-101    C    0.85755998    0.80913006    0.28820984    -0.18440000
opls_716-102    C    0.64244002    0.30913006    0.71179016    -0.18440000
opls_716-103    C    0.14244002    0.80913006    0.71179016    -0.18440000
opls_567-104    C    0.66628000    0.67997996    0.55309874    -0.00710000
opls_567-105    C    0.16628000    0.17997996    0.55309874    -0.00710000
opls_567-106    C    0.33372005    0.67997996    0.44689853    -0.00710000
opls_567-107    C    0.83372005    0.17997996    0.44689853    -0.00710000
opls_567-108    C    0.33372005    0.32002004    0.44689853    -0.00710000
opls_567-109    C    0.83372005    0.82002004    0.44689853    -0.00710000
opls_567-110    C    0.66628000    0.32002004    0.55309874    -0.00710000
opls_567-111    C    0.16628000    0.82002004    0.55309874    -0.00710000
opls_567-112    C    0.69147007    0.69333006    0.50061844    -0.00380000
opls_567-113    C    0.19147007    0.19333006    0.50061844    -0.00380000
opls_567-114    C    0.30852998    0.69333006    0.49937883    -0.00380000
opls_567-115    C    0.80852998    0.19333006    0.49937883    -0.00380000
opls_567-116    C    0.30852998    0.30666994    0.49937883    -0.00380000
opls_567-117    C    0.80852998    0.80666994    0.49937883    -0.00380000
opls_567-118    C    0.69147007    0.30666994    0.50061844    -0.00380000
opls_567-119    C    0.19147007    0.80666994    0.50061844    -0.00380000
opls_716-120    C    0.71542012    0.68328998    0.31493903    -0.22450000
opls_716-121    C    0.21542012    0.18328998    0.31493903    -0.22450000
opls_716-122    C    0.28458007    0.68328998    0.68506097    -0.22450000
opls_716-123    C    0.78458007    0.18328998    0.68506097    -0.22450000
opls_716-124    C    0.28458007    0.31671002    0.68506097    -0.22450000
opls_716-125    C    0.78458007    0.81671002    0.68506097    -0.22450000
opls_716-126    C    0.71542012    0.31671002    0.31493903    -0.22450000
opls_716-127    C    0.21542012    0.81671002    0.31493903    -0.22450000
opls_543-128    C    0.73467992    0.70025993    0.30855029    0.13320000
opls_543-129    C    0.23467992    0.20025993    0.30855029    0.13320000
opls_543-130    C    0.26532008    0.70025993    0.69144971    0.13320000
opls_543-131    C    0.76532008    0.20025993    0.69144971    0.13320000
opls_543-132    C    0.26532008    0.29974007    0.69144971    0.13500000
opls_543-133    C    0.76532008    0.79974007    0.69144971    0.13320000
opls_543-134    C    0.73467992    0.29974007    0.30855029    0.13500000
opls_543-135    C    0.23467992    0.79974007    0.30855029    0.13320000
opls_567-136    C    0.72649002    0.72184007    0.47677986    -0.06740000
opls_567-137    C    0.22649002    0.22184007    0.47677986    -0.06740000
opls_567-138    C    0.27350998    0.72184007    0.52322014    -0.06740000
opls_567-139    C    0.77350998    0.22184007    0.52322014    -0.06740000
opls_567-140    C    0.27350998    0.27816994    0.52322014    -0.06740000
opls_567-141    C    0.77350998    0.77815993    0.52322014    -0.06740000
opls_567-142    C    0.72649002    0.27816994    0.47677986    -0.06740000
opls_567-143    C    0.22649002    0.77815993    0.47677986    -0.06740000
opls_234-144    C    0.77053007    0.72264991    0.21158855    0.42970000
opls_234-145    C    0.27053007    0.22265009    0.21158855    0.42970000
opls_234-146    C    0.22946998    0.72264991    0.78840873    0.42970000
opls_234-147    C    0.72946998    0.22265009    0.78840873    0.42970000
opls_234-148    C    0.22946998    0.27735993    0.78840873    0.43110000
opls_234-149    C    0.72946998    0.77735993    0.78840873    0.43110000
opls_234-150    C    0.77053007    0.27735993    0.21158855    0.43110000
opls_234-151    C    0.27053007    0.77735993    0.21158855    0.43110000
opls_716-152    C    0.74926006    0.73837996    0.43466048    -0.07510000
opls_716-153    C    0.24926006    0.23837996    0.43466048    -0.07510000
opls_716-154    C    0.25073994    0.73837996    0.56533952    -0.07510000
opls_716-155    C    0.75073994    0.23837996    0.56533952    -0.07510000
opls_716-156    C    0.25073994    0.26162004    0.56533952    -0.07510000
opls_716-157    C    0.75073994    0.76162004    0.56533952    -0.07510000
opls_716-158    C    0.74926006    0.26162004    0.43466048    -0.07510000
opls_716-159    C    0.24926006    0.76162004    0.43466048    -0.07510000
opls_245-160    C    0.72435998    0.82172004    0.06754084    -0.06180000
opls_245-161    C    0.22435998    0.32172004    0.06754084    -0.06180000
opls_245-162    C    0.27564001    0.82172004    0.93247006    -0.06180000
opls_245-163    C    0.77564001    0.32172004    0.93247006    -0.06180000
opls_245-164    C    0.27564001    0.17827996    0.93247006    -0.06180000
opls_245-165    C    0.77564001    0.67827996    0.93247006    -0.06180000
opls_245-166    C    0.72435998    0.17827996    0.06754084    -0.06180000
opls_245-167    C    0.22435998    0.67827996    0.06754084    -0.06180000
opls_136-168    C    0.69513002    0.81697996    0.23280080    -0.18610000
opls_136-169    C    0.19513002    0.31697996    0.23280080    -0.18610000
opls_136-170    C    0.30486998    0.81697996    0.76719920    -0.18610000
opls_136-171    C    0.80486998    0.31697996    0.76719920    -0.18610000
opls_136-172    C    0.30486998    0.18302004    0.76719920    -0.18610000
opls_136-173    C    0.80486998    0.68302004    0.76719920    -0.18610000
opls_136-174    C    0.69513002    0.18302004    0.23280080    -0.18610000
opls_136-175    C    0.19513002    0.68302004    0.23280080    -0.18610000
opls_136-176    C    0.68138006    0.84036994    0.41943103    -0.12630000
opls_136-177    C    0.18138006    0.34036994    0.41943103    -0.12630000
opls_136-178    C    0.31862013    0.84036994    0.58056897    -0.12630000
opls_136-179    C    0.81862013    0.34036994    0.58056897    -0.12630000
opls_136-180    C    0.31862013    0.15963006    0.58056897    -0.12630000
opls_136-181    C    0.81862013    0.65963006    0.58056897    -0.12630000
opls_136-182    C    0.68138006    0.15963006    0.41943103    -0.12630000
opls_136-183    C    0.18138006    0.65963006    0.41943103    -0.12630000
opls_135-184    C    0.65238997    0.83505993    0.59006081    -0.40390000
opls_135-185    C    0.15238997    0.33505993    0.59006081    -0.40390000
opls_135-186    C    0.34761003    0.83505993    0.40993919    -0.40390000
opls_135-187    C    0.84761003    0.33505993    0.40993919    -0.40390000
opls_135-188    C    0.34761003    0.16494007    0.40993919    -0.40390000
opls_135-189    C    0.84761003    0.66494007    0.40993919    -0.40390000
opls_135-190    C    0.65238997    0.16494007    0.59006081    -0.40390000
opls_135-191    C    0.15238997    0.66494007    0.59006081    -0.40390000
opls_700-192    C    0.48650002    0.50000000    0.49494077    -0.00260000
opls_700-193    C    0.98650002    0.00000000    0.49494077    -0.00260000
opls_700-194    C    0.51349998    0.50000000    0.50505923    -0.00260000
opls_700-195    C    0.01349998    0.00000000    0.50505923    -0.00260000
opls_145-196    C    0.43356009    0.50000000    0.48138956    -0.17110000
opls_145-197    C    0.93356009    0.00000000    0.48138956    -0.17110000
opls_145-198    C    0.56644010    0.50000000    0.51861044    -0.17110000
opls_145-199    C    0.06644010    0.00000000    0.51861044    -0.17110000
opls_146-200    H    0.47809996    0.56287996    0.50439992    0.09420000
opls_146-201    H    0.97809996    0.06287996    0.50439992    0.09420000
opls_146-202    H    0.52190004    0.56287996    0.49560008    0.09420000
opls_146-203    H    0.02190004    0.06287996    0.49560008    0.09420000
opls_146-204    H    0.52190004    0.43712004    0.49560008    0.09420000
opls_146-205    H    0.02190004    0.93712004    0.49560008    0.09420000
opls_146-206    H    0.47809996    0.43712004    0.50439992    0.09420000
opls_146-207    H    0.97809996    0.93712004    0.50439992    0.09420000
opls_146-208    H    0.54288000    0.56566994    0.91818870    0.09290000
opls_146-209    H    0.04288000    0.06566994    0.91818870    0.09290000
opls_146-210    H    0.45713001    0.56566994    0.08181130    0.09290000
opls_146-211    H    0.95713001    0.06566994    0.08181130    0.09290000
opls_146-212    H    0.45713001    0.43433006    0.08181130    0.09290000
opls_146-213    H    0.95713001    0.93434007    0.08181130    0.09290000
opls_146-214    H    0.54288000    0.43433006    0.91818870    0.09290000
opls_146-215    H    0.04288000    0.93434007    0.91818870    0.09290000
opls_146-216    H    0.56959013    0.60204991    0.90405992    0.11850000
opls_146-217    H    0.06959013    0.10204991    0.90405992    0.11850000
opls_146-218    H    0.43041006    0.60204991    0.09594008    0.11840000
opls_146-219    H    0.93041006    0.10204991    0.09594008    0.11840000
opls_146-220    H    0.43041006    0.39795993    0.09594008    0.11680000
opls_146-221    H    0.93041006    0.89795993    0.09594008    0.11680000
opls_146-222    H    0.56959013    0.39795993    0.90405992    0.11680000
opls_146-223    H    0.06959013    0.89795993    0.90405992    0.11680000
opls_146-224    H    0.63134006    0.56843006    0.07883079    0.11450000
opls_146-225    H    0.13134006    0.06843006    0.07883079    0.11450000
opls_146-226    H    0.36866013    0.56843006    0.92116921    0.11450000
opls_146-227    H    0.86866013    0.06843006    0.92116921    0.11450000
opls_146-228    H    0.36866013    0.43156994    0.92116921    0.11450000
opls_146-229    H    0.86866013    0.93156994    0.92116921    0.11450000
opls_146-230    H    0.63134006    0.43156994    0.07883079    0.11450000
opls_146-231    H    0.13134006    0.93156994    0.07883079    0.11450000
opls_146-232    H    0.60354994    0.53156994    0.08254961    0.11310000
opls_146-233    H    0.10354994    0.03156994    0.08254961    0.11310000
opls_146-234    H    0.39645006    0.53156994    0.91745039    0.11420000
opls_146-235    H    0.89645006    0.03156994    0.91745039    0.11420000
opls_146-236    H    0.39645006    0.46843006    0.91745039    0.11420000
opls_146-237    H    0.89645006    0.96843006    0.91745039    0.11420000
opls_146-238    H    0.60354994    0.46843006    0.08254961    0.11310000
opls_146-239    H    0.10354994    0.96843006    0.08254961    0.11310000
opls_144-240    H    0.59121007    0.63565009    0.69686856    0.11770000
opls_144-241    H    0.09121007    0.13565009    0.69686856    0.11780000
opls_144-242    H    0.40878997    0.63565009    0.30313961    0.11140000
opls_144-243    H    0.90878997    0.13565009    0.30313961    0.11770000
opls_144-244    H    0.40878997    0.36435009    0.30313961    0.11140000
opls_144-245    H    0.90878997    0.86434991    0.30313961    0.11770000
opls_144-246    H    0.59121007    0.36435009    0.69686856    0.11770000
opls_144-247    H    0.09121007    0.86434991    0.69686856    0.11770000
opls_570-248    H    0.60175011    0.67972004    0.85020923    0.11660000
opls_570-249    H    0.10175011    0.17972004    0.85020923    0.11660000
opls_570-250    H    0.39825008    0.67972004    0.14979077    0.11660000
opls_570-251    H    0.89825008    0.17972004    0.14979077    0.11660000
opls_570-252    H    0.39825008    0.32027996    0.14979077    0.11660000
opls_570-253    H    0.89825008    0.82027996    0.14979077    0.11660000
opls_570-254    H    0.60175011    0.32027996    0.85020923    0.11660000
opls_570-255    H    0.10175011    0.82027996    0.85020923    0.11660000
opls_570-256    H    0.64007006    0.70978998    0.81046827    0.11480000
opls_570-257    H    0.14007006    0.20978998    0.81046827    0.11480000
opls_570-258    H    0.35992999    0.70978998    0.18952900    0.11480000
opls_570-259    H    0.85992999    0.20978998    0.18952900    0.11480000
opls_570-260    H    0.35992999    0.29022004    0.18952900    0.11410000
opls_570-261    H    0.85992999    0.79022004    0.18952900    0.11410000
opls_570-262    H    0.64007006    0.29022004    0.81046827    0.11410000
opls_570-263    H    0.14007006    0.79022004    0.81046827    0.11410000
opls_547-264    H    0.71834011    0.66521002    0.18807962    0.11500000
opls_547-265    H    0.21834011    0.16521002    0.18807962    0.11500000
opls_547-266    H    0.28166008    0.66521002    0.81192038    0.11500000
opls_547-267    H    0.78166008    0.16521002    0.81192038    0.11500000
opls_547-268    H    0.28166008    0.33478998    0.81192038    0.11500000
opls_547-269    H    0.78166008    0.83478998    0.81192038    0.11500000
opls_547-270    H    0.71834011    0.33478998    0.18807962    0.11500000
opls_547-271    H    0.21834011    0.83478998    0.18807962    0.11500000
opls_140-272    H    0.72697990    0.83820000    0.88640029    0.05360000
opls_140-273    H    0.22697990    0.33820000    0.88640029    0.05360000
opls_140-274    H    0.27303012    0.83820000    0.11359971    0.05360000
opls_140-275    H    0.77303012    0.33820000    0.11359971    0.05360000
opls_140-276    H    0.27303012    0.16180000    0.11359971    0.05360000
opls_140-277    H    0.77303012    0.66180000    0.11359971    0.05360000
opls_140-278    H    0.72697990    0.16180000    0.88640029    0.05360000
opls_140-279    H    0.22697990    0.66180000    0.88640029    0.05360000
opls_140-280    H    0.73378009    0.82636994    0.28788019    0.05180000
opls_140-281    H    0.23378009    0.32636994    0.28788019    0.05180000
opls_140-282    H    0.26622010    0.82636994    0.71211981    0.05410000
opls_140-283    H    0.76622010    0.32636994    0.71211981    0.05410000
opls_140-284    H    0.26622010    0.17363006    0.71211981    0.05410000
opls_140-285    H    0.76622010    0.67363006    0.71211981    0.05410000
opls_140-286    H    0.73378009    0.17363006    0.28788019    0.05180000
opls_140-287    H    0.23378009    0.67363006    0.28788019    0.05180000
opls_140-288    H    0.69278005    0.80104991    0.42535935    0.11590000
opls_140-289    H    0.19278005    0.30104991    0.42535935    0.11590000
opls_140-290    H    0.30721995    0.80104991    0.57464065    0.11590000
opls_140-291    H    0.80721995    0.30104991    0.57464065    0.11590000
opls_140-292    H    0.30721995    0.19894991    0.57464065    0.11590000
opls_140-293    H    0.80721995    0.69895009    0.57464065    0.11590000
opls_140-294    H    0.69278005    0.19894991    0.42535935    0.11590000
opls_140-295    H    0.19278005    0.69895009    0.42535935    0.11590000
opls_140-296    H    0.68569992    0.81103006    0.01914988    0.12160000
opls_140-297    H    0.18569992    0.31103006    0.01914988    0.12160000
opls_140-298    H    0.31430008    0.81103006    0.98085012    0.12160000
opls_140-299    H    0.81430008    0.31103006    0.98085012    0.12170000
opls_140-300    H    0.31430008    0.18896994    0.98085012    0.12160000
opls_140-301    H    0.81430008    0.68896994    0.98085012    0.12160000
opls_140-302    H    0.68569992    0.18896994    0.01914988    0.12160000
opls_140-303    H    0.18569992    0.68896994    0.01914988    0.12160000
opls_140-304    H    0.68322998    0.85595993    0.22224916    0.11800000
opls_140-305    H    0.18322998    0.35595993    0.22224916    0.11800000
opls_140-306    H    0.31677002    0.85595993    0.77775084    0.11800000
opls_140-307    H    0.81677002    0.35595993    0.77775084    0.11800000
opls_140-308    H    0.31677002    0.14404991    0.77775084    0.11810000
opls_140-309    H    0.81677002    0.64404991    0.77775084    0.11810000
opls_140-310    H    0.68322998    0.14404991    0.22224916    0.11810000
opls_140-311    H    0.18322998    0.64404991    0.22224916    0.11810000
opls_140-312    H    0.69098004    0.84678998    0.62976091    0.12180000
opls_140-313    H    0.19098004    0.34678998    0.62976091    0.12180000
opls_140-314    H    0.30901996    0.84678998    0.37023909    0.12180000
opls_140-315    H    0.80901996    0.34678998    0.37023909    0.12180000
opls_140-316    H    0.30901996    0.15321002    0.37023909    0.12180000
opls_140-317    H    0.80901996    0.65321002    0.37023909    0.12180000
opls_140-318    H    0.69098004    0.15321002    0.62976091    0.12180000
opls_140-319    H    0.19098004    0.65321002    0.62976091    0.12180000
opls_140-320    H    0.64968995    0.81821002    0.76467095    0.10970000
opls_140-321    H    0.14968995    0.31821002    0.76467095    0.10970000
opls_140-322    H    0.35031005    0.81821002    0.23532905    0.10970000
opls_140-323    H    0.85031005    0.31821002    0.23532905    0.10970000
opls_140-324    H    0.35031005    0.18178998    0.23532905    0.10970000
opls_140-325    H    0.85031005    0.68178998    0.23532905    0.10970000
opls_140-326    H    0.64968995    0.18178998    0.76467095    0.10970000
opls_140-327    H    0.14968995    0.68178998    0.76467095    0.10970000
opls_140-328    H    0.64184993    0.83198998    0.37669050    0.16610000
opls_140-329    H    0.14184993    0.33198998    0.37669050    0.16610000
opls_140-330    H    0.35816009    0.83198998    0.62330950    0.16640000
opls_140-331    H    0.85816009    0.33198998    0.62330950    0.16640000
opls_140-332    H    0.35816009    0.16802004    0.62330950    0.16650000
opls_140-333    H    0.85816009    0.66802004    0.62330950    0.16650000
opls_140-334    H    0.64184993    0.16802004    0.37669050    0.16610000
opls_140-335    H    0.14184993    0.66802004    0.37669050    0.16610000
opls_140-336    H    0.64312001    0.85107996    0.75912950    0.16350000
opls_140-337    H    0.14312001    0.35107996    0.75912950    0.16350000
opls_140-338    H    0.35687999    0.85107996    0.24087050    0.16350000
opls_140-339    H    0.85687999    0.35107996    0.24087050    0.16350000
opls_140-340    H    0.35687999    0.14892004    0.24087050    0.16350000
opls_140-341    H    0.85687999    0.64892004    0.24087050    0.16350000
opls_140-342    H    0.64312001    0.14892004    0.75912950    0.16350000
opls_140-343    H    0.14312001    0.64892004    0.75912950    0.16350000
opls_146-344    H    0.41345009    0.50000000    0.46331038    0.11540000
opls_146-345    H    0.91345009    0.00000000    0.46331038    0.11540000
opls_146-346    H    0.58655010    0.50000000    0.53668962    0.11540000
opls_146-347    H    0.08655010    0.00000000    0.53668962    0.11540000
opls_750-348    N    0.61941008    0.60942004    0.46959014    -0.34440000
opls_750-349    N    0.11941008    0.10942004    0.46959014    -0.34440000
opls_750-350    N    0.38059011    0.60942004    0.53040986    -0.34440000
opls_750-351    N    0.88059011    0.10942004    0.53040986    -0.34440000
opls_750-352    N    0.38059011    0.39057996    0.53040986    -0.34440000
opls_750-353    N    0.88059011    0.89057996    0.53040986    -0.34440000
opls_750-354    N    0.61941008    0.39057996    0.46959014    -0.34440000
opls_750-355    N    0.11941008    0.89057996    0.46959014    -0.34440000
opls_542-356    N    0.76185004    0.69962004    0.13801859    -0.12460000
opls_542-357    N    0.26185004    0.19962004    0.13801859    -0.12460000
opls_542-358    N    0.23815001    0.69962004    0.86197868    -0.12460000
opls_542-359    N    0.73815001    0.19962004    0.86197868    -0.12460000
opls_542-360    N    0.23815001    0.30037996    0.86197868    -0.12460000
opls_542-361    N    0.73815001    0.80037996    0.86197868    -0.12460000
opls_542-362    N    0.76185004    0.30037996    0.13801859    -0.12460000
opls_542-363    N    0.26185004    0.80037996    0.13801859    -0.12460000
opls_633-364    S    0.66375995    0.64960000    0.42640007    0.07530000
opls_633-365    S    0.16375995    0.14960000    0.42640007    0.07530000
opls_633-366    S    0.33624005    0.64960000    0.57359993    0.07530000
opls_633-367    S    0.83624005    0.14960000    0.57359993    0.07530000
opls_633-368    S    0.33624005    0.35040000    0.57359993    0.07530000
opls_633-369    S    0.83624005    0.85040000    0.57359993    0.07530000
opls_633-370    S    0.66375995    0.35040000    0.42640007    0.07530000
opls_633-371    S    0.16375995    0.85040000    0.42640007    0.07530000
opls_633-372    S    0.69351003    0.72335009    0.65865055    0.07530000
opls_633-373    S    0.19351003    0.22335009    0.65865055    0.07530000
opls_633-374    S    0.30648997    0.72335009    0.34134945    0.07530000
opls_633-375    S    0.80648997    0.22335009    0.34134945    0.07530000
opls_633-376    S    0.30648997    0.27665009    0.34134945    0.07530000
opls_633-377    S    0.80648997    0.77665009    0.34134945    0.07530000
opls_633-378    S    0.69351003    0.27665009    0.65865055    0.07530000
opls_633-379    S    0.19351003    0.77665009    0.65865055    0.07530000
opls_236-380    O    0.79311000    0.72916994    0.09822042    -0.37670000
opls_236-381    O    0.29311000    0.22916994    0.09822042    -0.37670000
opls_236-382    O    0.20689000    0.72916994    0.90177958    -0.37670000
opls_236-383    O    0.70689000    0.22916994    0.90177958    -0.37670000
opls_236-384    O    0.20689000    0.27083006    0.90177958    -0.37670000
opls_236-385    O    0.70689000    0.77083006    0.90177958    -0.37670000
opls_236-386    O    0.79311000    0.27083006    0.09822042    -0.37670000
opls_236-387    O    0.29311000    0.77083006    0.09822042    -0.37670000
