#======================================================================
# Crystal Data Generated By AuToFF
#----------------------------------------------------------------------

data_AuToFF_phase_1

_cell_length_a                         25.4170
_cell_length_b                         12.3770
_cell_length_c                         25.4170
_cell_angle_alpha                      90.00
_cell_angle_beta                       90.00
_cell_angle_gamma                      90.00
_symmetry_space_group_name_H-M_alt     'P 1'
_symmetry_space_group_IT_number        1

loop_
_space_group_symop_operation_xyz
   'x, y, z'

loop_
   _atom_site_label
   _atom_site_type_symbol
   _atom_site_fract_x
   _atom_site_fract_y
   _atom_site_fract_z
   _atom_site_charge
opls_145-0    C    0.00800016    0.23599984    0.30599992    0.06860000
opls_145-1    C    0.99199984    0.23599984    0.69400008    0.06860000
opls_145-2    C    0.99199984    0.76400016    0.69400008    0.06860000
opls_145-3    C    0.00800016    0.76400016    0.30599992    0.06860000
opls_145-4    C    0.03400008    0.32299992    0.28299996    -0.13160000
opls_145-5    C    0.96599992    0.32299992    0.71700004    -0.13160000
opls_145-6    C    0.96599992    0.67700008    0.71700004    -0.13160000
opls_145-7    C    0.03400008    0.67700008    0.28299996    -0.13160000
opls_145-8    C    0.03299996    0.33899976    0.22800016    -0.11660000
opls_145-9    C    0.96700004    0.33899976    0.77199984    -0.11450000
opls_145-10    C    0.96700004    0.66100024    0.77199984    -0.11450000
opls_145-11    C    0.03299996    0.66100024    0.22800016    -0.11660000
opls_145-12    C    0.04472007    0.14448008    0.46551993    -0.13790000
opls_145-13    C    0.95527993    0.14448008    0.53448007    -0.13790000
opls_145-14    C    0.95527993    0.85551992    0.53448007    -0.13790000
opls_145-15    C    0.04472007    0.85551992    0.46551993    -0.13790000
opls_700-16    C    0.00899988    0.26499960    0.19500020    0.06240000
opls_700-17    C    0.99100012    0.26499960    0.80500020    0.06240000
opls_700-18    C    0.99100012    0.73499960    0.80500020    0.06240000
opls_700-19    C    0.00899988    0.73499960    0.19500020    0.06240000
opls_700-20    C    0.00700004    0.28199968    0.13700004    -0.13480000
opls_700-21    C    0.99299996    0.28199968    0.86299996    -0.13480000
opls_700-22    C    0.99299996    0.71800032    0.86299996    -0.13480000
opls_700-23    C    0.00700004    0.71800032    0.13700004    -0.13480000
opls_142-24    C    0.01589015    0.22167003    0.35868985    0.08210000
opls_142-25    C    0.98410985    0.22167003    0.64131015    0.08210000
opls_142-26    C    0.98410985    0.77832997    0.64131015    0.08210000
opls_142-27    C    0.01589015    0.77832997    0.35868985    0.08210000
opls_145-28    C    0.98299996    0.16899976    0.21800016    -0.09630000
opls_145-29    C    0.01700004    0.16899976    0.78199984    -0.09630000
opls_145-30    C    0.01700004    0.83100024    0.78199984    -0.09630000
opls_145-31    C    0.98299996    0.83100024    0.21800016    -0.09630000
opls_145-32    C    0.98000000    0.15700008    0.27199984    -0.09600000
opls_145-33    C    0.02000000    0.15700008    0.72800016    -0.09600000
opls_145-34    C    0.02000000    0.84299992    0.72800016    -0.09600000
opls_145-35    C    0.98000000    0.84299992    0.27199984    -0.09600000
opls_145-36    C    0.94644018    0.13841965    0.48216981    -0.17890000
opls_145-37    C    0.05355982    0.13841965    0.51783019    -0.17890000
opls_145-38    C    0.05355982    0.86158035    0.51783019    -0.17890000
opls_145-39    C    0.94644018    0.86158035    0.48216981    -0.17890000
opls_145-40    C    0.99012983    0.14870001    0.44395995    0.19140000
opls_145-41    C    0.00987017    0.14870001    0.55604005    0.19140000
opls_145-42    C    0.00987017    0.85129999    0.55604005    0.19140000
opls_145-43    C    0.99012983    0.85129999    0.44395995    0.19140000
opls_507-44    C    0.95499980    0.28800032    0.11199984    0.19020000
opls_507-45    C    0.04499980    0.28800032    0.88800016    0.19020000
opls_507-46    C    0.04499980    0.71199968    0.88800016    0.19020000
opls_507-47    C    0.95499980    0.71199968    0.11199984    0.19020000
opls_716-48    C    0.90800016    0.29000000    0.14000000    -0.19940000
opls_716-49    C    0.09199984    0.29000000    0.86000000    -0.19940000
opls_716-50    C    0.09199984    0.71000000    0.86000000    -0.19940000
opls_716-51    C    0.90800016    0.71000000    0.14000000    -0.19940000
opls_507-52    C    0.89199984    0.28599984    0.05499980    0.18370000
opls_507-53    C    0.10800016    0.28599984    0.94500020    0.18370000
opls_507-54    C    0.10800016    0.71400016    0.94500020    0.18370000
opls_507-55    C    0.89199984    0.71400016    0.05499980    0.18370000
opls_716-56    C    0.86800016    0.28599984    0.10400008    -0.20030000
opls_716-57    C    0.13199984    0.28599984    0.89599992    -0.20030000
opls_716-58    C    0.13199984    0.71400016    0.89599992    -0.20030000
opls_716-59    C    0.86800016    0.71400016    0.10400008    -0.20030000
opls_700-60    C    0.30599992    0.23599984    0.99199984    0.06130000
opls_700-61    C    0.69400008    0.23599984    0.00800016    0.06130000
opls_700-62    C    0.69400008    0.76400016    0.00800016    0.06130000
opls_700-63    C    0.30599992    0.76400016    0.99199984    0.06130000
opls_145-64    C    0.28299996    0.32299992    0.96599992    -0.13160000
opls_145-65    C    0.71700004    0.32299992    0.03400008    -0.13160000
opls_145-66    C    0.71700004    0.67700008    0.03400008    -0.13160000
opls_145-67    C    0.28299996    0.67700008    0.96599992    -0.13160000
opls_145-68    C    0.22800016    0.33899976    0.96700004    -0.11450000
opls_145-69    C    0.77199984    0.33899976    0.03299996    -0.11660000
opls_145-70    C    0.77199984    0.66100024    0.03299996    -0.11660000
opls_145-71    C    0.22800016    0.66100024    0.96700004    -0.11450000
opls_145-72    C    0.46729984    0.13580997    0.95589015    -0.17870000
opls_145-73    C    0.53270016    0.13580997    0.04410985    -0.17860000
opls_145-74    C    0.53270016    0.86419003    0.04410985    -0.17860000
opls_145-75    C    0.46729984    0.86419003    0.95589015    -0.17870000
opls_700-76    C    0.19500020    0.26499960    0.99100012    0.06240000
opls_700-77    C    0.80500020    0.26499960    0.00899988    0.06240000
opls_700-78    C    0.80500020    0.73499960    0.00899988    0.06240000
opls_700-79    C    0.19500020    0.73499960    0.99100012    0.06240000
opls_700-80    C    0.13700004    0.28199968    0.99299996    -0.13480000
opls_700-81    C    0.86299996    0.28199968    0.00700004    -0.13480000
opls_700-82    C    0.86299996    0.71800032    0.00700004    -0.13480000
opls_700-83    C    0.13700004    0.71800032    0.99299996    -0.13480000
opls_142-84    C    0.36333989    0.22251030    0.98717984    0.06910000
opls_142-85    C    0.63666995    0.22251030    0.01282016    0.06910000
opls_142-86    C    0.63666995    0.77748970    0.01282016    0.06910000
opls_142-87    C    0.36333989    0.77748970    0.98717984    0.06910000
opls_145-88    C    0.21800016    0.16899976    0.01700004    -0.09630000
opls_145-89    C    0.78199984    0.16899976    0.98299996    -0.09630000
opls_145-90    C    0.78199984    0.83100024    0.98299996    -0.09630000
opls_145-91    C    0.21800016    0.83100024    0.01700004    -0.09630000
opls_145-92    C    0.27199984    0.15700008    0.02000000    -0.09590000
opls_145-93    C    0.72800016    0.15700008    0.98000000    -0.09600000
opls_145-94    C    0.72800016    0.84299992    0.98000000    -0.09600000
opls_145-95    C    0.27199984    0.84299992    0.02000000    -0.09600000
opls_145-96    C    0.47798993    0.13482023    0.05052996    -0.16490000
opls_145-97    C    0.52201007    0.13482023    0.94947004    -0.16490000
opls_145-98    C    0.52201007    0.86517977    0.94947004    -0.16490000
opls_145-99    C    0.47798993    0.86517977    0.05052996    -0.16490000
opls_145-100    C    0.44506984    0.13830977    0.00657985    0.18920000
opls_145-101    C    0.55493016    0.13830977    0.99342015    0.18930000
opls_145-102    C    0.55493016    0.86169023    0.99342015    0.18880000
opls_145-103    C    0.44506984    0.86169023    0.00657985    0.18890000
opls_543-104    C    0.11199984    0.28800032    0.04499980    0.16850000
opls_543-105    C    0.88800016    0.28800032    0.95499980    0.16850000
opls_543-106    C    0.88800016    0.71199968    0.95499980    0.16850000
opls_543-107    C    0.11199984    0.71199968    0.04499980    0.16850000
opls_716-108    C    0.14000000    0.29000000    0.09199984    -0.19940000
opls_716-109    C    0.86000000    0.29000000    0.90800016    -0.19940000
opls_716-110    C    0.86000000    0.71000000    0.90800016    -0.19940000
opls_716-111    C    0.14000000    0.71000000    0.09199984    -0.19940000
opls_543-112    C    0.05499980    0.28599984    0.10800016    0.17930000
opls_543-113    C    0.94500020    0.28599984    0.89199984    0.17930000
opls_543-114    C    0.94500020    0.71400016    0.89199984    0.17930000
opls_543-115    C    0.05499980    0.71400016    0.10800016    0.17930000
opls_716-116    C    0.10400008    0.28599984    0.13199984    -0.20030000
opls_716-117    C    0.89599992    0.28599984    0.86800016    -0.20030000
opls_716-118    C    0.89599992    0.71400016    0.86800016    -0.20030000
opls_716-119    C    0.10400008    0.71400016    0.13199984    -0.20030000
opls_750-120    N    0.97954991    0.16955967    0.39424008    -0.32390000
opls_750-121    N    0.02045009    0.16955967    0.60575992    -0.32390000
opls_750-122    N    0.02045009    0.83044033    0.60575992    -0.32400000
opls_750-123    N    0.97954991    0.83044033    0.39424008    -0.32400000
opls_542-124    N    0.94500020    0.28700008    0.05899988    -0.30350000
opls_542-125    N    0.05499980    0.28700008    0.94100012    -0.30350000
opls_542-126    N    0.05499980    0.71299992    0.94100012    -0.30340000
opls_542-127    N    0.94500020    0.71299992    0.05899988    -0.30350000
opls_750-128    N    0.38944997    0.15092995    0.01381005    -0.35480000
opls_750-129    N    0.61055003    0.15092995    0.98618995    -0.35480000
opls_750-130    N    0.61055003    0.84907974    0.98618995    -0.35470000
opls_750-131    N    0.38944997    0.84907974    0.01381005    -0.35480000
opls_542-132    N    0.05899988    0.28700008    0.05499980    -0.24680000
opls_542-133    N    0.94100012    0.28700008    0.94500020    -0.24680000
opls_542-134    N    0.94100012    0.71299992    0.94500020    -0.24680000
opls_542-135    N    0.05899988    0.71299992    0.05499980    -0.24680000
opls_146-136    H    0.05446001    0.38106003    0.30748003    0.11390000
opls_146-137    H    0.94553999    0.38106003    0.69251997    0.11390000
opls_146-138    H    0.94553999    0.61893997    0.69251997    0.11390000
opls_146-139    H    0.05446001    0.61893997    0.30748003    0.11390000
opls_146-140    H    0.05215014    0.40923972    0.21167998    0.11910000
opls_146-141    H    0.94786009    0.40923972    0.78832002    0.11910000
opls_146-142    H    0.94786009    0.59076028    0.78832002    0.11910000
opls_146-143    H    0.05215014    0.59076028    0.21167998    0.11900000
opls_146-144    H    0.07781013    0.14108023    0.43882992    0.11730000
opls_146-145    H    0.92218987    0.14108023    0.56117008    0.11730000
opls_146-146    H    0.92218987    0.85891977    0.56117008    0.11730000
opls_146-147    H    0.07781013    0.85891977    0.43882992    0.11730000
opls_146-148    H    0.96414014    0.11013008    0.19275013    0.11520000
opls_146-149    H    0.03585986    0.11013008    0.80724987    0.11520000
opls_146-150    H    0.03585986    0.88986992    0.80724987    0.11520000
opls_146-151    H    0.96414014    0.88986992    0.19275013    0.11520000
opls_146-152    H    0.95844986    0.09036035    0.28877011    0.10960000
opls_146-153    H    0.04155014    0.09036035    0.71122989    0.10960000
opls_146-154    H    0.04155014    0.90963965    0.71122989    0.10960000
opls_146-155    H    0.95844986    0.90963965    0.28877011    0.10960000
opls_146-156    H    0.90652005    0.13378040    0.46753984    0.11920000
opls_146-157    H    0.09347995    0.13378040    0.53246016    0.11920000
opls_146-158    H    0.09347995    0.86621960    0.53246016    0.11920000
opls_146-159    H    0.90652005    0.86621960    0.46753984    0.11920000
opls_547-160    H    0.90285006    0.29183001    0.18223000    0.12030000
opls_547-161    H    0.09714994    0.29183001    0.81777000    0.12030000
opls_547-162    H    0.09714994    0.70816999    0.81777000    0.12030000
opls_547-163    H    0.90285006    0.70816999    0.18223000    0.12030000
opls_547-164    H    0.82671991    0.28198029    0.11385018    0.11900000
opls_547-165    H    0.17328009    0.28198029    0.88614982    0.11900000
opls_547-166    H    0.17328009    0.71801971    0.88614982    0.11900000
opls_547-167    H    0.82671991    0.71801971    0.11385018    0.11900000
opls_545-168    H    0.97057009    0.71923972    0.97192981    0.25000000
opls_545-169    H    0.02942991    0.71923972    0.02807019    0.25000000
opls_545-170    H    0.02942991    0.28076028    0.02807019    0.25000000
opls_545-171    H    0.97057009    0.28076028    0.97192981    0.25000000
opls_146-172    H    0.30748003    0.38106003    0.94553999    0.11390000
opls_146-173    H    0.69251997    0.38106003    0.05446001    0.11390000
opls_146-174    H    0.69251997    0.61893997    0.05446001    0.11390000
opls_146-175    H    0.30748003    0.61893997    0.94553999    0.11390000
opls_146-176    H    0.21167998    0.40923972    0.94786009    0.11910000
opls_146-177    H    0.78832002    0.40923972    0.05215014    0.11900000
opls_146-178    H    0.78832002    0.59076028    0.05215014    0.11900000
opls_146-179    H    0.21167998    0.59076028    0.94786009    0.11910000
opls_146-180    H    0.44211001    0.13570978    0.92158004    0.11880000
opls_146-181    H    0.55788999    0.13570978    0.07843018    0.11630000
opls_146-182    H    0.55788999    0.86429991    0.07843018    0.11640000
opls_146-183    H    0.44211001    0.86429991    0.92158004    0.11880000
opls_146-184    H    0.19275013    0.11013008    0.03585986    0.11520000
opls_146-185    H    0.80724987    0.11013008    0.96414014    0.11520000
opls_146-186    H    0.80724987    0.88986992    0.96414014    0.11520000
opls_146-187    H    0.19275013    0.88986992    0.03585986    0.11520000
opls_146-188    H    0.28877011    0.09036035    0.04155014    0.10960000
opls_146-189    H    0.71122989    0.09036035    0.95844986    0.10960000
opls_146-190    H    0.71122989    0.90963965    0.95844986    0.10960000
opls_146-191    H    0.28877011    0.90963965    0.04155014    0.10960000
opls_146-192    H    0.46100012    0.13541003    0.08956014    0.11930000
opls_146-193    H    0.53899988    0.13541003    0.91043986    0.11930000
opls_146-194    H    0.53899988    0.86458997    0.91043986    0.11930000
opls_146-195    H    0.46100012    0.86458997    0.08956014    0.11930000
opls_547-196    H    0.18223000    0.29183001    0.09714994    0.12030000
opls_547-197    H    0.81777000    0.29183001    0.90285006    0.12030000
opls_547-198    H    0.81777000    0.70816999    0.90285006    0.12030000
opls_547-199    H    0.18223000    0.70816999    0.09714994    0.12030000
opls_547-200    H    0.11385018    0.28198029    0.17328009    0.11900000
opls_547-201    H    0.88614982    0.28198029    0.82671991    0.11910000
opls_547-202    H    0.88614982    0.71801971    0.82671991    0.11900000
opls_547-203    H    0.11385018    0.71801971    0.17328009    0.11900000
opls_144-204    H    0.38414998    0.72368991    0.96062006    0.10550000
opls_144-205    H    0.04554983    0.72833966    0.37753000    0.10580000
opls_144-206    H    0.61585002    0.72368991    0.03937994    0.10620000
opls_144-207    H    0.95445017    0.72833966    0.62247000    0.10580000
opls_144-208    H    0.61585002    0.27631009    0.03937994    0.10620000
opls_144-209    H    0.95445017    0.27166034    0.62247000    0.10580000
opls_144-210    H    0.38414998    0.27631009    0.96062006    0.10550000
opls_144-211    H    0.04554983    0.27166034    0.37753000    0.10580000
