#======================================================================
# Crystal Data Generated By AuToFF
#----------------------------------------------------------------------

data_AuToFF_phase_1

_cell_length_a                         28.4382
_cell_length_b                         28.4382
_cell_length_c                         3.4852
_cell_angle_alpha                      90.00
_cell_angle_beta                       90.00
_cell_angle_gamma                      120.00
_symmetry_space_group_name_H-M_alt     'P 1'
_symmetry_space_group_IT_number        1

loop_
_space_group_symop_operation_xyz
   'x, y, z'

loop_
   _atom_site_label
   _atom_site_type_symbol
   _atom_site_fract_x
   _atom_site_fract_y
   _atom_site_fract_z
   _atom_site_charge
opls_750-0    N    0.42603003    0.61103004    0.63056926    -0.33660000
opls_750-1    N    0.61102995    0.42602992    0.36943074    -0.36270000
opls_750-2    N    0.38896014    0.81499013    0.63056066    -0.33660000
opls_750-3    N    0.57397006    0.18500012    0.36943074    -0.36270000
opls_750-4    N    0.18500988    0.57397008    0.63058074    -0.36270000
opls_750-5    N    0.81499999    0.38896996    0.36943934    -0.36270000
opls_145-6    C    0.32872981    0.61526989    0.50875990    -0.10530000
opls_145-7    C    0.71346007    0.38474026    0.49124010    -0.10530000
opls_145-8    C    0.38473010    0.71346018    0.50875129    -0.10530000
opls_145-9    C    0.61525996    0.32873007    0.49122862    -0.10530000
opls_145-10    C    0.28652989    0.67126993    0.50875129    -0.10530000
opls_145-11    C    0.67127013    0.28654023    0.49122862    -0.10530000
opls_142-12    C    0.42854995    0.65854021    0.54260875    0.08850000
opls_142-13    C    0.65853001    0.42855020    0.45739125    0.08850000
opls_142-14    C    0.34146004    0.77000999    0.54260875    0.08930000
opls_142-15    C    0.57144990    0.22997986    0.45737117    0.08850000
opls_142-16    C    0.22998001    0.57145021    0.54262022    0.08920000
opls_142-17    C    0.77002009    0.34146994    0.45739125    0.08930000
opls_145-18    C    0.46517017    0.59886999    0.71308103    0.16930000
opls_145-19    C    0.59887014    0.46517001    0.28691897    0.16930000
opls_145-20    C    0.40111985    0.86630001    0.71308103    0.16930000
opls_145-21    C    0.53483003    0.13369999    0.28691036    0.16930000
opls_145-22    C    0.13370013    0.53482999    0.71310111    0.16930000
opls_145-23    C    0.86630018    0.40113001    0.28693045    0.16930000
opls_145-24    C    0.52130993    0.63745990    0.74688971    -0.20630000
opls_145-25    C    0.54350984    0.44692994    0.21677092    -0.26820000
opls_145-26    C    0.36253999    0.88385022    0.74688971    -0.20630000
opls_145-27    C    0.55306981    0.09657994    0.21675083    -0.26820000
opls_145-28    C    0.11615008    0.47868988    0.74692987    -0.20630000
opls_145-29    C    0.90342000    0.45649012    0.21677092    -0.26820000
opls_145-30    C    0.55888993    0.62133002    0.85770114    -0.23050000
opls_700-31    C    0.52751984    0.48432001    0.10474865    0.05890000
opls_145-32    C    0.37866996    0.93756020    0.85770974    -0.23040000
opls_700-33    C    0.51568018    0.04320007    0.10474004    0.05890000
opls_145-34    C    0.06243995    0.44111019    0.85774131    -0.23050000
opls_700-35    C    0.95679998    0.47247992    0.10474865    0.05890000
opls_700-36    C    0.53935010    0.56610024    0.93695914    0.02260000
opls_700-37    C    0.56609989    0.53935001    0.06304086    0.02260000
opls_700-38    C    0.43388988    0.97324003    0.93695053    0.02260000
opls_700-39    C    0.46064986    0.02675997    0.06304086    0.02260000
opls_700-40    C    0.02676007    0.46064999    0.93697923    0.02260000
opls_700-41    C    0.97324021    0.43390016    0.06306094    0.02260000
opls_700-42    C    0.48432021    0.52753023    0.89525135    0.05890000
opls_145-43    C    0.62132997    0.55889022    0.14229026    -0.23030000
opls_700-44    C    0.47246996    0.95679018    0.89523987    0.05850000
opls_145-45    C    0.44110997    0.06244021    0.14229026    -0.23050000
opls_700-46    C    0.04321003    0.51567999    0.89525135    0.05850000
opls_145-47    C    0.93755991    0.37866998    0.14233043    -0.23050000
opls_145-48    C    0.44692988    0.54350988    0.78322908    -0.26820000
opls_145-49    C    0.63746020    0.52131012    0.25309882    -0.20630000
opls_145-50    C    0.45648987    0.90342006    0.78322048    -0.26820000
opls_145-51    C    0.47868997    0.11615019    0.25309882    -0.20630000
opls_145-52    C    0.09657990    0.55307006    0.78322908    -0.26800000
opls_145-53    C    0.88385003    0.36254010    0.25313899    -0.20630000
opls_700-54    C    0.38096020    0.66203011    0.51349994    0.04420000
opls_700-55    C    0.66202006    0.38096004    0.48648858    0.04630000
opls_700-56    C    0.33797008    0.71894008    0.51349133    0.04630000
opls_700-57    C    0.61903985    0.28105992    0.48647997    0.04630000
opls_700-58    C    0.28106002    0.61903996    0.51349994    0.04630000
opls_700-59    C    0.71894009    0.33798004    0.48648858    0.04510000
opls_701-60    C    0.52742016    0.00000000    0.99999139    -0.34470000
opls_701-61    C    0.00000002    0.52742019    0.99999139    -0.34460000
opls_701-62    C    0.47258003    0.47258021    0.00000861    -0.34470000
opls_146-63    H    0.32543990    0.57774015    0.50972111    0.19370000
opls_146-64    H    0.74769011    0.42226025    0.49027029    0.19360000
opls_146-65    H    0.42225998    0.74770020    0.50970963    0.19360000
opls_146-66    H    0.57773991    0.32543994    0.49025881    0.19360000
opls_146-67    H    0.25229981    0.67454991    0.50972111    0.19360000
opls_146-68    H    0.67455999    0.25230021    0.49025881    0.19370000
opls_144-69    H    0.46549999    0.69293006    0.51125043    0.09470000
opls_144-70    H    0.69292018    0.46550012    0.48876105    0.09470000
opls_144-71    H    0.30707010    0.77257006    0.51123895    0.09470000
opls_144-72    H    0.53450004    0.22742994    0.48872948    0.09440000
opls_144-73    H    0.22742991    0.53449988    0.51125904    0.09440000
opls_144-74    H    0.77257008    0.30708010    0.48874957    0.09420000
opls_146-75    H    0.89152992    0.48482999    0.24078102    0.19360000
opls_146-76    H    0.14235990    0.46480011    0.69472053    0.19370000
opls_146-77    H    0.51517004    0.40670004    0.24078962    0.19360000
opls_146-78    H    0.53519994    0.67755013    0.69466889    0.19370000
opls_146-79    H    0.59328985    0.10846997    0.24076954    0.19360000
opls_146-80    H    0.32245006    0.85764002    0.69468036    0.19370000
opls_146-81    H    0.85764982    0.32244987    0.30537128    0.19370000
opls_146-82    H    0.10847000    0.59329996    0.75917881    0.19360000
opls_146-83    H    0.67754994    0.53519989    0.30531964    0.19370000
opls_146-84    H    0.40669993    0.51517001    0.75919890    0.19360000
opls_146-85    H    0.46480004    0.14234983    0.30531964    0.19370000
opls_146-86    H    0.48483008    0.89153003    0.75917881    0.19370000
opls_702-87    H    0.54258999    0.98513005    0.22427981    0.08180000
opls_702-88    H    0.01487020    0.55746015    0.22429129    0.08180000
opls_702-89    H    0.44254001    0.45741020    0.22431137    0.08180000
opls_702-90    H    0.55745999    0.01486020    0.77568863    0.08180000
opls_702-91    H    0.98514021    0.54259020    0.77568863    0.08400000
opls_702-92    H    0.45740005    0.44254026    0.77570871    0.08180000
opls_146-93    H    0.59922980    0.64923990    0.88373121    0.19360000
opls_146-94    H    0.64924023    0.59923015    0.11626879    0.19360000
opls_146-95    H    0.35076012    0.94999026    0.88373121    0.19370000
opls_146-96    H    0.40077007    0.05001015    0.11626879    0.19360000
opls_146-97    H    0.05001028    0.40077026    0.88377998    0.19360000
opls_146-98    H    0.94998991    0.35076010    0.11632044    0.19360000
