#======================================================================
# Crystal Data Generated By AuToFF
#----------------------------------------------------------------------

data_AuToFF_phase_1

_cell_length_a                         22.7920
_cell_length_b                         22.7920
_cell_length_c                         3.4000
_cell_angle_alpha                      90.00
_cell_angle_beta                       90.00
_cell_angle_gamma                      120.00
_symmetry_space_group_name_H-M_alt     'P 1'
_symmetry_space_group_IT_number        1

loop_
_space_group_symop_operation_xyz
   'x, y, z'

loop_
   _atom_site_label
   _atom_site_type_symbol
   _atom_site_fract_x
   _atom_site_fract_y
   _atom_site_fract_z
   _atom_site_charge
opls_280-0    C    0.69503016    0.40643009    0.00000000    0.32300000
opls_280-1    C    0.59357000    0.28860017    0.00000000    0.32300000
opls_280-2    C    0.71140009    0.30497025    0.00000000    0.32300000
opls_280-3    C    0.30496984    0.59356991    0.00000000    0.32300000
opls_280-4    C    0.40643000    0.71139983    0.00000000    0.32300000
opls_280-5    C    0.28860016    0.69503026    0.00000000    0.32300000
opls_145-6    C    0.62122991    0.36179994    0.00000000    -0.14910000
opls_145-7    C    0.63820009    0.25943020    0.00000000    -0.14910000
opls_145-8    C    0.74057000    0.37876986    0.00000000    -0.14910000
opls_145-9    C    0.37877009    0.63820006    0.00000000    -0.14910000
opls_145-10    C    0.36179991    0.74056980    0.00000000    -0.14910000
opls_145-11    C    0.25943000    0.62123014    0.00000000    -0.14910000
opls_142-12    C    0.57651980    0.38335989    0.00000000    0.07180000
opls_142-13    C    0.61664013    0.19316005    0.00000000    0.07180000
opls_142-14    C    0.80684007    0.42348006    0.00000000    0.07180000
opls_142-15    C    0.42348020    0.61664011    0.00000000    0.07180000
opls_142-16    C    0.38335987    0.80683995    0.00000000    0.07180000
opls_142-17    C    0.19315993    0.57651994    0.00000000    0.07180000
opls_280-18    C    0.43031004    0.45271995    0.00000000    0.20530000
opls_280-19    C    0.54727996    0.97758993    0.00000000    0.20530000
opls_280-20    C    0.02241000    0.56969012    0.00000000    0.20530000
opls_280-21    C    0.56970005    0.54728005    0.00000000    0.20530000
opls_280-22    C    0.45272004    0.02241007    0.00000000    0.20530000
opls_280-23    C    0.97759000    0.43030988    0.00000000    0.20530000
opls_145-24    C    0.47806984    0.42923988    0.00000000    -0.22170000
opls_145-25    C    0.57076025    0.04883008    0.00000000    -0.22170000
opls_145-26    C    0.95116992    0.52193004    0.00000000    -0.22170000
opls_145-27    C    0.52193016    0.57076012    0.00000000    -0.22170000
opls_145-28    C    0.42923975    0.95116992    0.00000000    -0.22170000
opls_145-29    C    0.04883008    0.47806996    0.00000000    -0.22170000
opls_145-30    C    0.54489994    0.47373021    0.00000000    0.15300000
opls_145-31    C    0.52625991    0.07117023    0.00000000    0.15300000
opls_145-32    C    0.92882987    0.45510007    0.00000000    0.15300000
opls_145-33    C    0.45508998    0.52626017    0.00000000    0.15300000
opls_145-34    C    0.47373025    0.92883028    0.00000000    0.15300000
opls_145-35    C    0.07117013    0.54489993    0.00000000    0.15300000
opls_238-36    N    0.59373969    0.45266979    0.00000000    -0.24700000
opls_238-37    N    0.54732021    0.14106021    0.00000000    -0.24700000
opls_238-38    N    0.85893986    0.40625986    0.00000000    -0.24700000
opls_238-39    N    0.40626031    0.54733021    0.00000000    -0.24700000
opls_238-40    N    0.45266995    0.85894029    0.00000000    -0.24700000
opls_238-41    N    0.14106014    0.59374014    0.00000000    -0.24700000
opls_281-42    O    0.62988029    0.58866020    0.00000000    -0.32390000
opls_281-43    O    0.41134011    0.04122006    0.00000000    -0.32360000
opls_281-44    O    0.95878994    0.37012025    0.00000000    -0.32360000
opls_281-45    O    0.37011971    0.41133980    0.00000000    -0.32360000
opls_281-46    O    0.58865989    0.95877994    0.00000000    -0.32360000
opls_281-47    O    0.04121031    0.62988026    0.00000000    -0.32370000
opls_281-48    O    0.72029998    0.46749010    0.00000000    -0.31980000
opls_281-49    O    0.53251027    0.25281012    0.00000000    -0.31980000
opls_281-50    O    0.74718998    0.27970991    0.00000000    -0.31970000
opls_281-51    O    0.27970002    0.53250990    0.00000000    -0.31980000
opls_281-52    O    0.46748973    0.74718988    0.00000000    -0.31980000
opls_281-53    O    0.25281002    0.72029009    0.00000000    -0.31980000
opls_144-54    H    0.47617987    0.65533008    0.00000000    0.10970000
opls_144-55    H    0.34466998    0.82085979    0.00000000    0.10970000
opls_144-56    H    0.17914995    0.52382026    0.00000000    0.10970000
opls_144-57    H    0.52382013    0.34466992    0.00000000    0.10970000
opls_144-58    H    0.65533001    0.17914983    0.00000000    0.10970000
opls_144-59    H    0.82085030    0.47618025    0.00000000    0.10970000
opls_910-60    H    0.64359015    0.49324998    0.00000000    0.29390000
opls_910-61    H    0.50675018    0.15032994    0.00000000    0.29240000
opls_910-62    H    0.84966996    0.35640995    0.00000000    0.29390000
opls_910-63    H    0.35640985    0.50675002    0.00000000    0.29390000
opls_910-64    H    0.49324982    0.84967006    0.00000000    0.29390000
opls_910-65    H    0.15033004    0.64359005    0.00000000    0.29390000
opls_146-66    H    0.54504018    0.62486011    0.00000000    0.10480000
opls_146-67    H    0.37514010    0.92018016    0.00000000    0.10480000
opls_146-68    H    0.07981032    0.45496024    0.00000000    0.10480000
opls_146-69    H    0.45495982    0.37513989    0.00000000    0.10480000
opls_146-70    H    0.62485990    0.07981984    0.00000000    0.10480000
opls_146-71    H    0.92018993    0.54504026    0.00000000    0.10480000
