#======================================================================
# Crystal Data Generated By AuToFF
#----------------------------------------------------------------------

data_AuToFF_phase_1

_cell_length_a                         37.4000
_cell_length_b                         37.4000
_cell_length_c                         3.4000
_cell_angle_alpha                      90.00
_cell_angle_beta                       90.00
_cell_angle_gamma                      120.00
_symmetry_space_group_name_H-M_alt     'P 1'
_symmetry_space_group_IT_number        1

loop_
_space_group_symop_operation_xyz
   'x, y, z'

loop_
   _atom_site_label
   _atom_site_type_symbol
   _atom_site_fract_x
   _atom_site_fract_y
   _atom_site_fract_z
   _atom_site_charge
opls_916-0    C    0.55103012    0.10915008    0.50000000    0.19280000
opls_916-1    C    0.89084996    0.44188012    0.50000000    0.19580000
opls_916-2    C    0.55812008    0.44897011    0.50000000    0.19580000
opls_916-3    C    0.44896988    0.89084992    0.50000000    0.19580000
opls_916-4    C    0.10915004    0.55811988    0.50000000    0.19580000
opls_916-5    C    0.44187992    0.55102989    0.50000000    0.19580000
opls_142-6    C    0.17853997    0.62342004    0.50000000    0.07590000
opls_142-7    C    0.37658012    0.55512012    0.50000000    0.07610000
opls_142-8    C    0.44488007    0.82146014    0.50000000    0.07590000
opls_142-9    C    0.82146003    0.37657996    0.50000000    0.07620000
opls_142-10    C    0.62341988    0.44487988    0.50000000    0.07590000
opls_142-11    C    0.55511993    0.17853986    0.50000000    0.07610000
opls_142-12    C    0.21945988    0.64219998    0.50000000    -0.32990000
opls_142-13    C    0.35780011    0.57726012    0.50000000    -0.33000000
opls_142-14    C    0.42274000    0.78053990    0.50000000    -0.33000000
opls_142-15    C    0.78054012    0.35780002    0.50000000    -0.32640000
opls_142-16    C    0.64219989    0.42273988    0.50000000    -0.33000000
opls_142-17    C    0.57726000    0.21946010    0.50000000    -0.33000000
opls_700-18    C    0.29013014    0.64548007    0.50000000    0.01010000
opls_700-19    C    0.35451985    0.64464986    0.50000000    0.00680000
opls_700-20    C    0.35535001    0.70987007    0.50000000    0.01010000
opls_700-21    C    0.70986986    0.35451993    0.50000000    0.00930000
opls_700-22    C    0.64548015    0.35535014    0.50000000    0.00930000
opls_700-23    C    0.64464999    0.29012993    0.50000000    0.00930000
opls_280-24    C    0.24486005    0.62178000    0.50000000    0.30200000
opls_280-25    C    0.37822001    0.62308012    0.50000000    0.30200000
opls_280-26    C    0.37691996    0.75515007    0.50000000    0.30250000
opls_280-27    C    0.75515011    0.37822000    0.50000000    0.30200000
opls_280-28    C    0.62177999    0.37691988    0.50000000    0.30200000
opls_280-29    C    0.62308006    0.24486012    0.50000000    0.30200000
opls_145-30    C    0.31156998    0.62388007    0.50000000    -0.10030000
opls_145-31    C    0.37611997    0.68768006    0.50000000    -0.10030000
opls_145-32    C    0.31231994    0.68843987    0.50000000    -0.10050000
opls_145-33    C    0.68843991    0.37611993    0.50000000    -0.10030000
opls_145-34    C    0.62388003    0.31231994    0.50000000    -0.10030000
opls_145-35    C    0.68767992    0.31157001    0.50000000    -0.10030000
opls_145-36    C    0.08643998    0.57842007    0.50000000    -0.17650000
opls_145-37    C    0.42158009    0.50802007    0.50000000    -0.17650000
opls_145-38    C    0.49197993    0.91355986    0.50000000    -0.17650000
opls_145-39    C    0.91356002    0.42157993    0.50000000    -0.17650000
opls_145-40    C    0.57841991    0.49197993    0.50000000    -0.17650000
opls_145-41    C    0.50802007    0.08644014    0.50000000    -0.17650000
opls_145-42    C    0.91103012    0.48480998    0.50000000    -0.17650000
opls_145-43    C    0.51519009    0.42622992    0.50000000    -0.17650000
opls_145-44    C    0.57377002    0.08896999    0.50000000    -0.17640000
opls_145-45    C    0.08897015    0.51519002    0.50000000    -0.17650000
opls_145-46    C    0.48481017    0.57377008    0.50000000    -0.17650000
opls_145-47    C    0.42622984    0.91103989    0.50000000    -0.17650000
opls_145-48    C    0.95345008    0.50756005    0.50000000    -0.13320000
opls_145-49    C    0.49245012    0.44589008    0.50000000    -0.08120000
opls_145-50    C    0.55410996    0.04654987    0.50000000    -0.13310000
opls_145-51    C    0.04655020    0.49245014    0.50000000    -0.13320000
opls_145-52    C    0.50754988    0.55410992    0.50000000    -0.08110000
opls_145-53    C    0.44589004    0.95345013    0.50000000    -0.08120000
opls_700-54    C    0.97713015    0.48778009    0.50000000    0.06880000
opls_700-55    C    0.51221993    0.48933986    0.50000000    0.06840000
opls_700-56    C    0.51066007    0.02286986    0.50000000    0.06840000
opls_700-57    C    0.02286985    0.51221991    0.50000000    0.06870000
opls_700-58    C    0.48778007    0.51066014    0.50000000    0.06840000
opls_700-59    C    0.48934020    0.97713014    0.50000000    0.06840000
opls_145-60    C    0.95611003    0.44417995    0.50000000    -0.13510000
opls_145-61    C    0.55581994    0.51193988    0.50000000    -0.13510000
opls_145-62    C    0.48806000    0.04389004    0.50000000    -0.13010000
opls_145-63    C    0.04388997    0.55582005    0.50000000    -0.13510000
opls_145-64    C    0.44418006    0.48806012    0.50000000    -0.13510000
opls_145-65    C    0.51194000    0.95610996    0.50000000    -0.13010000
opls_281-66    O    0.35532996    0.77097009    0.50000000    -0.36690000
opls_281-67    O    0.22904001    0.58436986    0.50000000    -0.36680000
opls_281-68    O    0.41562988    0.64466993    0.50000000    -0.36670000
opls_281-69    O    0.64467005    0.22904010    0.50000000    -0.36680000
opls_281-70    O    0.77097015    0.41563014    0.50000000    -0.36690000
opls_281-71    O    0.58437012    0.35533007    0.50000000    -0.36680000
opls_144-72    H    0.16532007    0.64330004    0.50000000    0.11830000
opls_144-73    H    0.35669999    0.52202993    0.50000000    0.09650000
opls_144-74    H    0.47798007    0.83467992    0.50000000    0.11830000
opls_144-75    H    0.83468021    0.35671015    0.50000000    0.09650000
opls_144-76    H    0.64329987    0.47797995    0.50000000    0.11830000
opls_144-77    H    0.52203009    0.16532008    0.50000000    0.11310000
opls_144-78    H    0.23411994    0.67527999    0.50000000    0.09440000
opls_144-79    H    0.32471993    0.55883987    0.50000000    0.09440000
opls_144-80    H    0.44116012    0.76588014    0.50000000    0.09440000
opls_144-81    H    0.76588006    0.32472001    0.50000000    0.09440000
opls_144-82    H    0.67528007    0.44116013    0.50000000    0.09440000
opls_144-83    H    0.55883988    0.23411986    0.50000000    0.09440000
opls_910-84    H    0.44000990    0.60475990    0.50000000    0.25930000
opls_910-85    H    0.39523992    0.83526005    0.50000000    0.25930000
opls_910-86    H    0.16475005    0.55998993    0.50000000    0.25930000
opls_910-87    H    0.55999010    0.39524010    0.50000000    0.25940000
opls_910-88    H    0.60476008    0.16473995    0.50000000    0.25930000
opls_910-89    H    0.83526011    0.44001007    0.50000000    0.26020000
opls_146-90    H    0.70624009    0.40924007    0.50000000    0.09440000
opls_146-91    H    0.59076007    0.29700997    0.50000000    0.09440000
opls_146-92    H    0.70300012    0.29376014    0.50000000    0.09440000
opls_146-93    H    0.29375991    0.59075993    0.50000000    0.09440000
opls_146-94    H    0.40924006    0.70299991    0.50000000    0.09440000
opls_146-95    H    0.29701004    0.70623986    0.50000000    0.09440000
opls_146-96    H    0.10071997    0.61152014    0.50000000    0.11400000
opls_146-97    H    0.38847995    0.48920000    0.50000000    0.11410000
opls_146-98    H    0.51080010    0.89929004    0.50000000    0.22270000
opls_146-99    H    0.89928993    0.38847986    0.50000000    0.11400000
opls_146-100    H    0.61152005    0.51080000    0.50000000    0.11400000
opls_146-101    H    0.48920018    0.10072014    0.50000000    0.11400000
opls_146-102    H    0.89368014    0.50088007    0.50000000    0.11300000
opls_146-103    H    0.49911996    0.39280998    0.50000000    0.11300000
opls_146-104    H    0.60720017    0.10632013    0.50000000    0.11450000
opls_146-105    H    0.10631986    0.49911993    0.50000000    0.11300000
opls_146-106    H    0.50087990    0.60719990    0.50000000    0.11450000
opls_146-107    H    0.39280999    0.89367987    0.50000000    0.11300000
opls_146-108    H    0.96624994    0.54041004    0.50000000    0.10450000
opls_146-109    H    0.45959004    0.42583998    0.50000000    0.10450000
opls_146-110    H    0.57416002    0.03374998    0.50000000    0.10450000
opls_146-111    H    0.03375006    0.45958996    0.50000000    0.10450000
opls_146-112    H    0.54040996    0.57416002    0.50000000    0.10450000
opls_146-113    H    0.42583998    0.96625002    0.50000000    0.10450000
opls_146-114    H    0.97122004    0.42619997    0.50000000    0.10450000
opls_146-115    H    0.57380005    0.54501989    0.50000000    0.10460000
opls_146-116    H    0.45498018    0.02878014    0.50000000    0.10450000
opls_146-117    H    0.02877996    0.57380003    0.50000000    0.10450000
opls_146-118    H    0.42619995    0.45498011    0.50000000    0.10450000
opls_146-119    H    0.54501982    0.97121986    0.50000000    0.10450000
opls_238-120    N    0.15273987    0.57955995    0.50000000    -0.27400000
opls_238-121    N    0.42044004    0.57318007    0.50000000    -0.27410000
opls_238-122    N    0.42682010    0.84725998    0.50000000    -0.27410000
opls_238-123    N    0.84726013    0.42044005    0.50000000    -0.27380000
opls_238-124    N    0.57955996    0.42681993    0.50000000    -0.27410000
opls_238-125    N    0.57317990    0.15274002    0.50000000    -0.27410000
