#======================================================================
# Crystal Data Generated By AuToFF
#----------------------------------------------------------------------

data_AuToFF_phase_1

_cell_length_a                         36.1175
_cell_length_b                         36.1175
_cell_length_c                         5.5000
_cell_angle_alpha                      90.00
_cell_angle_beta                       90.00
_cell_angle_gamma                      120.00
_symmetry_space_group_name_H-M_alt     'P 1'
_symmetry_space_group_IT_number        1

loop_
_space_group_symop_operation_xyz
   'x, y, z'

loop_
   _atom_site_label
   _atom_site_type_symbol
   _atom_site_fract_x
   _atom_site_fract_y
   _atom_site_fract_z
   _atom_site_charge
opls_145-0    C    0.16337022    0.07491015    0.45254909    0.22300000
opls_145-1    C    0.18987004    0.05738000    0.49988000    -0.09810000
opls_145-2    C    0.23316005    0.08435013    0.56058000    -0.07990000
opls_700-3    C    0.25056018    0.12928011    0.57342000    0.08110000
opls_145-4    C    0.22399981    0.14681986    0.52548909    -0.08010000
opls_145-5    C    0.18070998    0.11989992    0.46512000    -0.09250000
opls_145-6    C    0.29537002    0.15702010    0.65469091    -0.00170000
opls_700-7    C    0.32578002    0.19570014    0.54280000    -0.01950000
opls_700-8    C    0.36737997    0.22018999    0.62736000    -0.01290000
opls_700-9    C    0.38056998    0.20759003    0.83056909    -0.00030000
opls_145-10    C    0.35072993    0.16879011    0.93848000    -0.07780000
opls_145-11    C    0.30878003    0.14390989    0.85198000    -0.10760000
opls_700-12    C    0.42465994    0.23174003    0.92728909    0.09440000
opls_145-13    C    0.44647010    0.20955015    0.98600909    -0.08000000
opls_145-14    C    0.48869996    0.23203992    0.07080909    -0.09700000
opls_145-15    C    0.50954997    0.27709011    0.10076000    0.20980000
opls_145-16    C    0.48733000    0.29905012    0.04898909    -0.07500000
opls_145-17    C    0.44504992    0.27646988    0.96398909    -0.18990000
opls_701-18    C    0.39338018    0.25714009    0.46542909    0.28160000
opls_701-19    C    0.32129993    0.21530008    0.32232000    0.28160000
opls_135-20    C    0.29383003    0.23651006    0.36610000    -0.35990000
opls_135-21    C    0.30096998    0.18168995    0.13146909    -0.36580000
opls_135-22    C    0.40253997    0.29966012    0.57882000    -0.36120000
opls_135-23    C    0.43567987    0.25937995    0.39910909    -0.36140000
opls_142-24    C    0.09095990    0.05950988    0.37996909    0.01590000
opls_700-25    C    0.04470005    0.02885992    0.35372000    0.08210000
opls_142-26    C    0.57789995    0.28391009    0.19741091    0.01580000
opls_145-27    C    0.62457994    0.31022003    0.23426000    0.05520000
opls_145-28    C    0.64928981    0.28981987    0.23270000    -0.10400000
opls_145-29    C    0.02065004    0.04934992    0.35485091    -0.06080000
opls_145-30    C    0.92508995    0.08845996    0.45254909    0.22300000
opls_145-31    C    0.94261987    0.13248997    0.49988000    -0.09810000
opls_145-32    C    0.91565012    0.14881004    0.56058000    -0.07990000
opls_700-33    C    0.87071992    0.12128009    0.57342000    0.08110000
opls_145-34    C    0.85317992    0.07718007    0.52548909    -0.08010000
opls_145-35    C    0.88010009    0.06081013    0.46512000    -0.09250000
opls_145-36    C    0.84297988    0.13834987    0.65469091    -0.00170000
opls_700-37    C    0.80429993    0.13008002    0.54280000    -0.01950000
opls_700-38    C    0.77981003    0.14719008    0.62736000    -0.01290000
opls_700-39    C    0.79241005    0.17297986    0.83056909    -0.00030000
opls_145-40    C    0.83121003    0.18193996    0.93848000    -0.07780000
opls_145-41    C    0.85608981    0.16486986    0.85198000    -0.10760000
opls_700-42    C    0.76826008    0.19291997    0.92728909    0.09440000
opls_145-43    C    0.79044999    0.23691992    0.98600909    -0.08000000
opls_145-44    C    0.76796004    0.25665989    0.07080909    -0.09700000
opls_145-45    C    0.72290987    0.23246001    0.10076000    0.20980000
opls_145-46    C    0.70095003    0.18828006    0.04898909    -0.07510000
opls_145-47    C    0.72353001    0.16858006    0.96398909    -0.18990000
opls_701-48    C    0.74286001    0.13624013    0.46542909    0.28160000
opls_701-49    C    0.78469988    0.10600003    0.32232000    0.28160000
opls_135-50    C    0.76348988    0.05731989    0.36610000    -0.35990000
opls_135-51    C    0.81830990    0.11928001    0.13146909    -0.36580000
opls_135-52    C    0.70034012    0.10288001    0.57882000    -0.36120000
opls_135-53    C    0.74062014    0.17630002    0.39910909    -0.36140000
opls_142-54    C    0.94048994    0.03144987    0.37996909    0.01600000
opls_700-55    C    0.97113998    0.01583987    0.35372000    0.08210000
opls_142-56    C    0.71609010    0.29399012    0.19741091    0.01580000
opls_145-57    C    0.68977994    0.31435991    0.23426000    0.05520000
opls_145-58    C    0.71018002    0.35946989    0.23270000    -0.10400000
opls_145-59    C    0.95065003    0.97129993    0.35485091    -0.06080000
opls_145-60    C    0.91153999    0.83663020    0.45254909    0.22300000
opls_145-61    C    0.86751009    0.81013003    0.49988000    -0.09810000
opls_145-62    C    0.85118999    0.76684015    0.56058000    -0.07990000
opls_700-63    C    0.87872006    0.74944011    0.57342000    0.08120000
opls_145-64    C    0.92282000    0.77600007    0.52548909    -0.08010000
opls_145-65    C    0.93918993    0.81928995    0.46512000    -0.09250000
opls_145-66    C    0.86165010    0.70463002    0.65469091    -0.00170000
opls_700-67    C    0.86992022    0.67422016    0.54280000    -0.01950000
opls_700-68    C    0.85281000    0.63261993    0.62736000    -0.01290000
opls_700-69    C    0.82701996    0.61943011    0.83056909    0.06690000
opls_145-70    C    0.81806004    0.64926993    0.93848000    -0.19220000
opls_145-71    C    0.83513000    0.69121993    0.85198000    -0.07670000
opls_700-72    C    0.80707998    0.57534000    0.92728909    0.09440000
opls_145-73    C    0.76307991    0.55352993    0.98600909    -0.08000000
opls_145-74    C    0.74334000    0.51130019    0.07080909    -0.09700000
opls_145-75    C    0.76753989    0.49044988    0.10076000    0.20980000
opls_145-76    C    0.81172013    0.51267014    0.04898909    -0.07510000
opls_145-77    C    0.83142007    0.55495007    0.96398909    -0.18990000
opls_701-78    C    0.86375997    0.60662010    0.46542909    0.28160000
opls_701-79    C    0.89400007    0.67870021    0.32232000    0.27990000
opls_135-80    C    0.94268010    0.70617005    0.36610000    -0.35980000
opls_135-81    C    0.88183004    0.69931010    0.14646000    -0.37170000
opls_135-82    C    0.89712007    0.59746019    0.57882000    -0.36110000
opls_135-83    C    0.82369999    0.56432003    0.39910909    -0.36140000
opls_142-84    C    0.96855001    0.90903993    0.37996909    0.01590000
opls_700-85    C    0.98415997    0.95530021    0.35372000    0.08210000
opls_142-86    C    0.70601012    0.42210011    0.19741091    0.01580000
opls_145-87    C    0.68564012    0.37542005    0.23426000    0.05520000
opls_145-88    C    0.64053002    0.35070992    0.23270000    -0.10390000
opls_145-89    C    0.02870020    0.97935015    0.35485091    -0.06080000
opls_901-90    N    0.36624992    0.24699004    0.25490000    -0.03090000
opls_750-91    N    0.11838005    0.04619985    0.40973091    -0.26810000
opls_750-92    N    0.55435013    0.30160010    0.16120909    -0.27080000
opls_901-93    N    0.75300987    0.11925987    0.25490000    -0.03090000
opls_750-94    N    0.95379990    0.07217986    0.40973091    -0.26800000
opls_750-95    N    0.69839986    0.25274988    0.16120909    -0.27080000
opls_901-96    N    0.88073993    0.63375009    0.25490000    -0.03090000
opls_750-97    N    0.92781988    0.88161997    0.40973091    -0.26810000
opls_750-98    N    0.74725001    0.44565002    0.16120909    -0.27080000
opls_272-99    O    0.36921005    0.28313001    0.15761091    -0.08140000
opls_272-100    O    0.71687017    0.08608007    0.15761091    -0.08140000
opls_272-101    O    0.91392006    0.63078993    0.15761091    -0.08210000
opls_146-102    H    0.17621999    0.02134010    0.48899091    0.04940000
opls_146-103    H    0.25448988    0.07012990    0.59980909    0.04940000
opls_146-104    H    0.23764999    0.18286999    0.53568000    0.04940000
opls_146-105    H    0.15951998    0.13430015    0.42624000    0.04950000
opls_146-106    H    0.36018997    0.15627998    0.10356000    0.04940000
opls_146-107    H    0.28585002    0.11264002    0.94706000    0.04940000
opls_146-108    H    0.42971003    0.17332994    0.96442000    0.04940000
opls_146-109    H    0.50639997    0.21416991    0.11590909    0.04940000
opls_146-110    H    0.50372004    0.33512998    0.07622000    0.04940000
opls_146-111    H    0.42713010    0.29432997    0.92446909    0.11940000
opls_140-112    H    0.26497996    0.21456987    0.48270000    0.10060000
opls_140-113    H    0.28245989    0.24229003    0.18414000    0.10060000
opls_140-114    H    0.31380002    0.26831991    0.46374000    0.10060000
opls_140-115    H    0.31008999    0.15603988    0.16194000    0.10060000
opls_140-116    H    0.31254014    0.19671009    0.94452000    0.10060000
opls_140-117    H    0.41960996    0.32646017    0.44044909    0.10060000
opls_140-118    H    0.42369003    0.30658017    0.74593091    0.10060000
opls_140-119    H    0.37114009    0.29755006    0.63446000    0.10060000
opls_140-120    H    0.44158014    0.26518007    0.19542909    0.09480000
opls_140-121    H    0.43395009    0.22793009    0.44936000    0.10060000
opls_140-122    H    0.46294990    0.28668003    0.50322909    0.10060000
opls_144-123    H    0.10261001    0.09522016    0.37394000    0.02920000
opls_144-124    H    0.56244995    0.24760995    0.20091091    0.02930000
opls_146-125    H    0.63282999    0.25342989    0.23017091    0.04940000
opls_146-126    H    0.03740016    0.08575013    0.35638000    0.04940000
opls_146-127    H    0.97865990    0.15487999    0.48899091    0.04940000
opls_146-128    H    0.92987011    0.18436014    0.59980909    0.04940000
opls_146-129    H    0.81712995    0.05478014    0.53568000    0.04940000
opls_146-130    H    0.86570008    0.02522006    0.42624000    0.04940000
opls_146-131    H    0.84372001    0.20390988    0.10356000    0.04940000
opls_146-132    H    0.88736006    0.17321005    0.94706000    0.04940000
opls_146-133    H    0.82667003    0.25638015    0.96442000    0.04940000
opls_146-134    H    0.78583016    0.29223014    0.11590909    0.04940000
opls_146-135    H    0.66487005    0.16858997    0.07622000    0.04940000
opls_146-136    H    0.70566992    0.13280008    0.92446909    0.11940000
opls_140-137    H    0.78543013    0.05041007    0.48270000    0.10060000
opls_140-138    H    0.75770991    0.04016987    0.18414000    0.10060000
opls_140-139    H    0.73167993    0.04547987    0.46374000    0.10060000
opls_140-140    H    0.80600985    0.12531991    0.95354000    0.10060000
opls_140-141    H    0.82641994    0.09284986    0.10379091    0.10060000
opls_140-142    H    0.67354007    0.09315006    0.44044909    0.10060000
opls_140-143    H    0.69342017    0.11711016    0.74593091    0.10060000
opls_140-144    H    0.70244992    0.07359009    0.63446000    0.10060000
opls_140-145    H    0.73482010    0.17640008    0.19542909    0.09480000
opls_140-146    H    0.77206985    0.20601995    0.44936000    0.10060000
opls_140-147    H    0.71332000    0.17626996    0.50322909    0.10060000
opls_144-148    H    0.90478008    0.00739002    0.37394000    0.02920000
opls_144-149    H    0.75239008    0.31484011    0.20091091    0.02920000
opls_146-150    H    0.74656998    0.37940008    0.23017091    0.04940000
opls_146-151    H    0.91424992    0.95165012    0.35638000    0.04940000
opls_146-152    H    0.84511983    0.82377991    0.48899091    0.04950000
opls_146-153    H    0.81564001    0.74550996    0.59980909    0.04940000
opls_146-154    H    0.94522023    0.76235019    0.53568000    0.04940000
opls_146-155    H    0.97478010    0.84048011    0.42624000    0.04940000
opls_146-156    H    0.79609002    0.63981013    0.10356000    0.11940000
opls_146-157    H    0.82678992    0.71414993    0.94706000    0.04940000
opls_146-158    H    0.74361993    0.57028991    0.96442000    0.04940000
opls_146-159    H    0.70776987    0.49359995    0.11590909    0.04940000
opls_146-160    H    0.83140991    0.49628005    0.07622000    0.04940000
opls_146-161    H    0.86719998    0.57286995    0.92446909    0.11940000
opls_140-162    H    0.94958991    0.73502006    0.48270000    0.10070000
opls_140-163    H    0.95982992    0.71754010    0.18414000    0.10060000
opls_140-164    H    0.95452006    0.68620021    0.46374000    0.10060000
opls_140-165    H    0.85604008    0.67125009    0.04766000    0.09480000
opls_140-166    H    0.90896000    0.71665995    0.01034000    0.10060000
opls_140-167    H    0.90685013    0.58039009    0.44044909    0.10060000
opls_140-168    H    0.88288996    0.57630999    0.74593091    0.10060000
opls_140-169    H    0.92641015    0.62886018    0.63446000    0.10060000
opls_140-170    H    0.82360020    0.55842016    0.19542909    0.09490000
opls_140-171    H    0.79398006    0.56604996    0.44936000    0.10060000
opls_140-172    H    0.82373010    0.53705001    0.50322909    0.10060000
opls_144-173    H    0.99261007    0.89739014    0.37394000    0.02920000
opls_144-174    H    0.68515996    0.43754993    0.20091091    0.02920000
opls_146-175    H    0.62060003    0.36717002    0.23017091    0.04940000
opls_146-176    H    0.04835008    0.96260007    0.35638000    0.04940000
opls_140-177    H    0.87406018    0.72317013    0.23488000    0.10060000
opls_140-178    H    0.84819992    0.14982990    0.19116909    0.10060000
opls_140-179    H    0.26474002    0.16661994    0.14204000    0.10060000
