#======================================================================
# Crystal Data Generated By AuToFF
#----------------------------------------------------------------------

data_AuToFF_phase_1

_cell_length_a                         30.1845
_cell_length_b                         30.1845
_cell_length_c                         3.4826
_cell_angle_alpha                      90.00
_cell_angle_beta                       90.00
_cell_angle_gamma                      120.00
_symmetry_space_group_name_H-M_alt     'P 1'
_symmetry_space_group_IT_number        1

loop_
_space_group_symop_operation_xyz
   'x, y, z'

loop_
   _atom_site_label
   _atom_site_type_symbol
   _atom_site_fract_x
   _atom_site_fract_y
   _atom_site_fract_z
   _atom_site_charge
opls_700-0    C    0.65006008    0.28064990    0.50000000    0.07530000
opls_145-1    C    0.70245003    0.31678994    0.50000000    -0.12830000
opls_142-2    C    0.59215981    0.36659992    0.50000000    0.09030000
opls_145-3    C    0.57427017    0.43757015    0.50000000    0.23930000
opls_145-4    C    0.59810008    0.49075995    0.50000000    -0.15980000
opls_700-5    C    0.56946010    0.51582025    0.50000000    -0.02180000
opls_700-6    C    0.51548003    0.48689009    0.50000000    -0.02010000
opls_700-7    C    0.49110985    0.43290996    0.50000000    -0.01660000
opls_145-8    C    0.52062991    0.40871000    0.50000000    -0.15390000
opls_280-9    C    0.43457988    0.40179009    0.50000000    0.17310000
opls_280-10    C    0.40407990    0.42765987    0.50000000    0.17500000
opls_700-11    C    0.71934999    0.36941012    0.50000000    0.07530000
opls_145-12    C    0.68321015    0.38565997    0.50000000    -0.12830000
opls_142-13    C    0.63339985    0.22555999    0.50000000    0.09030000
opls_145-14    C    0.56243004    0.13669993    0.50000000    0.23930000
opls_145-15    C    0.50924000    0.10734017    0.50000000    -0.15980000
opls_700-16    C    0.48417993    0.05364005    0.50000000    -0.02180000
opls_700-17    C    0.51310999    0.02859008    0.50000000    -0.02010000
opls_700-18    C    0.56709004    0.05820002    0.50000000    -0.01660000
opls_145-19    C    0.59129007    0.11192003    0.50000000    -0.15390000
opls_280-20    C    0.59820987    0.03279006    0.50000000    0.17310000
opls_280-21    C    0.57234001    0.97642015    0.50000000    0.17500000
opls_700-22    C    0.63058993    0.34993998    0.50000000    0.07530000
opls_145-23    C    0.61434015    0.29755009    0.50000000    -0.12830000
opls_142-24    C    0.77444001    0.40784008    0.50000000    0.09030000
opls_145-25    C    0.86330012    0.42572992    0.50000000    0.23930000
opls_145-26    C    0.89265993    0.40189988    0.50000000    -0.15980000
opls_700-27    C    0.94636017    0.43054007    0.50000000    -0.02180000
opls_700-28    C    0.97141017    0.48452021    0.50000000    -0.02010000
opls_700-29    C    0.94180011    0.50889002    0.50000000    -0.01660000
opls_145-30    C    0.88808002    0.47936997    0.50000000    -0.15390000
opls_280-31    C    0.96721010    0.56542022    0.50000000    0.17310000
opls_280-32    C    0.02358009    0.59591998    0.50000000    0.17500000
opls_700-33    C    0.34993992    0.71935010    0.50000000    0.07530000
opls_145-34    C    0.29754997    0.68321006    0.50000000    -0.12830000
opls_142-35    C    0.40784019    0.63340008    0.50000000    0.09030000
opls_145-36    C    0.42573002    0.56243023    0.50000000    0.23930000
opls_145-37    C    0.40189992    0.50924005    0.50000000    -0.15980000
opls_700-38    C    0.43054010    0.48418013    0.50000000    -0.02180000
opls_700-39    C    0.48451997    0.51310991    0.50000000    -0.02010000
opls_700-40    C    0.50889015    0.56709004    0.50000000    -0.01660000
opls_145-41    C    0.47937009    0.59129000    0.50000000    -0.15390000
opls_280-42    C    0.56542012    0.59820991    0.50000000    0.17310000
opls_280-43    C    0.59592010    0.57234013    0.50000000    0.17500000
opls_700-44    C    0.28065020    0.63059026    0.50000000    0.07530000
opls_145-45    C    0.31678985    0.61434003    0.50000000    -0.12830000
opls_142-46    C    0.36660015    0.77444001    0.50000000    0.09030000
opls_145-47    C    0.43756996    0.86330007    0.50000000    0.23930000
opls_145-48    C    0.49076019    0.89266021    0.50000000    -0.15980000
opls_700-49    C    0.51582026    0.94636033    0.50000000    -0.02180000
opls_700-50    C    0.48689020    0.97141031    0.50000000    -0.02010000
opls_700-51    C    0.43290996    0.94179998    0.50000000    -0.01660000
opls_145-52    C    0.40870993    0.88807997    0.50000000    -0.15390000
opls_280-53    C    0.40179032    0.96721032    0.50000000    0.17310000
opls_280-54    C    0.42765999    0.02357985    0.50000000    0.17500000
opls_700-55    C    0.36941007    0.65006002    0.50000000    0.07530000
opls_145-56    C    0.38565985    0.70244991    0.50000000    -0.12830000
opls_142-57    C    0.22555999    0.59215992    0.50000000    0.09030000
opls_145-58    C    0.13669988    0.57427008    0.50000000    0.23920000
opls_145-59    C    0.10734007    0.59810012    0.50000000    -0.15980000
opls_700-60    C    0.05363983    0.56945993    0.50000000    -0.02180000
opls_700-61    C    0.02859002    0.51548017    0.50000000    -0.02010000
opls_700-62    C    0.05819989    0.49110998    0.50000000    -0.01660000
opls_145-63    C    0.11191998    0.52063003    0.50000000    -0.15390000
opls_280-64    C    0.03279009    0.43458016    0.50000000    0.17310000
opls_280-65    C    0.97641991    0.40408002    0.50000000    0.17500000
opls_750-66    N    0.60641015    0.41500023    0.50000000    -0.25230000
opls_750-67    N    0.58499982    0.19140997    0.50000000    -0.25230000
opls_750-68    N    0.80859022    0.39359019    0.50000000    -0.25230000
opls_750-69    N    0.39359004    0.58500016    0.50000000    -0.25230000
opls_750-70    N    0.41500018    0.80859003    0.50000000    -0.25240000
opls_750-71    N    0.19140997    0.60641020    0.50000000    -0.25240000
opls_281-72    O    0.35741019    0.40299014    0.50000000    -0.29110000
opls_281-73    O    0.41372019    0.35517017    0.50000000    -0.29170000
opls_281-74    O    0.59701001    0.95442022    0.50000000    -0.29120000
opls_281-75    O    0.64483003    0.05855005    0.50000000    -0.29170000
opls_281-76    O    0.04557999    0.64259002    0.50000000    -0.29120000
opls_281-77    O    0.94144997    0.58628016    0.50000000    -0.29170000
opls_281-78    O    0.64259000    0.59701024    0.50000000    -0.29110000
opls_281-79    O    0.58628000    0.64483021    0.50000000    -0.29170000
opls_281-80    O    0.40299018    0.04558016    0.50000000    -0.29120000
opls_281-81    O    0.35516997    0.94144995    0.50000000    -0.29170000
opls_281-82    O    0.95442001    0.35740998    0.50000000    -0.29110000
opls_281-83    O    0.05855022    0.41372022    0.50000000    -0.29170000
opls_146-84    H    0.73019998    0.30397995    0.50000000    0.14660000
opls_144-85    H    0.55221995    0.33748997    0.50000000    0.14520000
opls_146-86    H    0.63957009    0.51266003    0.50000000    0.14240000
opls_146-87    H    0.50116008    0.36745989    0.50000000    0.14850000
opls_146-88    H    0.69602008    0.42621996    0.50000000    0.14660000
opls_144-89    H    0.66250989    0.21473007    0.50000000    0.14520000
opls_146-90    H    0.48734018    0.12691016    0.50000000    0.14240000
opls_146-91    H    0.63254000    0.13369999    0.50000000    0.14850000
opls_146-92    H    0.57377993    0.26980009    0.50000000    0.14660000
opls_144-93    H    0.78526983    0.44777996    0.50000000    0.14520000
opls_146-94    H    0.87309025    0.36043020    0.50000000    0.14240000
opls_146-95    H    0.86629991    0.49884012    0.50000000    0.14850000
opls_146-96    H    0.26980002    0.69602005    0.50000000    0.14660000
opls_144-97    H    0.44778005    0.66251003    0.50000000    0.14520000
opls_146-98    H    0.36042991    0.48733997    0.50000000    0.14240000
opls_146-99    H    0.49883992    0.63254011    0.50000000    0.14850000
opls_146-100    H    0.30397992    0.57378004    0.50000000    0.14660000
opls_144-101    H    0.33749011    0.78526993    0.50000000    0.14520000
opls_146-102    H    0.51266001    0.87309023    0.50000000    0.14240000
opls_146-103    H    0.36746000    0.86630001    0.50000000    0.14850000
opls_146-104    H    0.42622026    0.73020029    0.50000000    0.14660000
opls_144-105    H    0.21473017    0.55222004    0.50000000    0.14520000
opls_146-106    H    0.12690994    0.63957018    0.50000000    0.14240000
opls_146-107    H    0.13370009    0.50115988    0.50000000    0.14850000
