#======================================================================
# Crystal Data Generated By AuToFF
#----------------------------------------------------------------------

data_AuToFF_phase_1

_cell_length_a                         38.0000
_cell_length_b                         38.0000
_cell_length_c                         4.6000
_cell_angle_alpha                      90.00
_cell_angle_beta                       90.00
_cell_angle_gamma                      120.00
_symmetry_space_group_name_H-M_alt     'P 1'
_symmetry_space_group_IT_number        1

loop_
_space_group_symop_operation_xyz
   'x, y, z'

loop_
   _atom_site_label
   _atom_site_type_symbol
   _atom_site_fract_x
   _atom_site_fract_y
   _atom_site_fract_z
   _atom_site_charge
opls_145-0    C    0.47227997    0.02809994    0.49628913    0.07730000
opls_145-1    C    0.54957999    0.96714999    0.73005000    -0.13000000
opls_145-2    C    0.55637999    0.93429998    0.72768913    -0.16390000
opls_145-3    C    0.51932999    0.91089998    0.27848913    -0.16350000
opls_145-4    C    0.51246994    0.94370988    0.28008043    -0.18690000
opls_145-5    C    0.51580994    0.61172987    0.27166957    -0.16350000
opls_145-6    C    0.52268999    0.57891997    0.27308043    -0.16770000
opls_145-7    C    0.48880002    0.55752003    0.73616957    -0.12720000
opls_145-8    C    0.48198001    0.59036001    0.73396957    -0.16380000
opls_145-9    C    0.45820001    0.09371001    0.50000000    0.21370000
opls_142-10    C    0.48288001    0.16325002    0.50000000    0.08840000
opls_700-11    C    0.48156996    0.20143991    0.50000000    0.05620000
opls_145-12    C    0.51836997    0.23813994    0.50000000    -0.11520000
opls_145-13    C    0.51838995    0.27492991    0.50000000    -0.11710000
opls_700-14    C    0.48168995    0.27492991    0.50000000    0.05740000
opls_145-15    C    0.44489994    0.23822988    0.50000000    -0.11520000
opls_145-16    C    0.44487996    0.20143991    0.50000000    -0.11630000
opls_142-17    C    0.48037991    0.31312982    0.50000000    0.07530000
opls_145-18    C    0.50505992    0.38266983    0.50000000    0.21400000
opls_145-19    C    0.49094991    0.44824982    0.50000000    0.03730000
opls_178-20    C    0.51407996    0.52034992    0.50000000    -0.01980000
opls_145-21    C    0.97189990    0.44417981    0.49628913    0.07730000
opls_145-22    C    0.03284998    0.58242996    0.73005000    -0.13000000
opls_145-23    C    0.06569997    0.62207994    0.72768913    -0.16390000
opls_145-24    C    0.08909993    0.60842986    0.27848913    -0.16350000
opls_145-25    C    0.05628991    0.56875982    0.28008043    -0.18690000
opls_145-26    C    0.38826998    0.90407995    0.27166957    -0.16350000
opls_145-27    C    0.42107987    0.94376974    0.27308043    -0.16770000
opls_145-28    C    0.44247992    0.93127983    0.73616957    -0.12720000
opls_145-29    C    0.40963991    0.89161982    0.73396957    -0.16380000
opls_145-30    C    0.90628999    0.36448999    0.50000000    0.21370000
opls_142-31    C    0.83674994    0.31962988    0.50000000    0.08840000
opls_700-32    C    0.79856000    0.28013001    0.50000000    0.05620000
opls_145-33    C    0.76185999    0.28022998    0.50000000    -0.11520000
opls_145-34    C    0.72507003    0.24346007    0.50000000    -0.11710000
opls_700-35    C    0.72507002    0.20676004    0.50000000    0.05740000
opls_145-36    C    0.76177005    0.20667010    0.50000000    -0.11520000
opls_145-37    C    0.79856001    0.24344001    0.50000000    -0.11630000
opls_142-38    C    0.68686992    0.16724984    0.50000000    0.07530000
opls_145-39    C    0.61733002    0.12239004    0.50000000    0.21400000
opls_145-40    C    0.55174995    0.04269991    0.50000000    0.03730000
opls_178-41    C    0.47964999    0.99372998    0.50000000    -0.01980000
opls_145-42    C    0.55581997    0.52771995    0.49628913    0.07730000
opls_145-43    C    0.41757003    0.45042005    0.73005000    -0.13000000
opls_145-44    C    0.37792004    0.44362008    0.72768913    -0.16390000
opls_145-45    C    0.39156993    0.48066986    0.27848913    -0.16350000
opls_145-46    C    0.43124000    0.48753000    0.28008043    -0.18690000
opls_145-47    C    0.09591994    0.48418987    0.27166957    -0.16350000
opls_145-48    C    0.05622999    0.47730999    0.27308043    -0.16770000
opls_145-49    C    0.06871992    0.51119983    0.73616957    -0.12720000
opls_145-50    C    0.10837993    0.51801986    0.73396957    -0.16380000
opls_145-51    C    0.63551000    0.54180000    0.50000000    0.21370000
opls_142-52    C    0.68036990    0.51711980    0.50000000    0.08840000
opls_700-53    C    0.71986989    0.51842978    0.50000000    0.05620000
opls_145-54    C    0.71976989    0.48162978    0.50000000    -0.11520000
opls_145-55    C    0.75654001    0.48161003    0.50000000    -0.11710000
opls_700-56    C    0.79324003    0.51831005    0.50000000    0.05740000
opls_145-57    C    0.79333001    0.55510002    0.50000000    -0.11520000
opls_145-58    C    0.75655989    0.55511977    0.50000000    -0.11630000
opls_142-59    C    0.83275002    0.51962003    0.50000000    0.07530000
opls_145-60    C    0.87760991    0.49493983    0.50000000    0.21400000
opls_145-61    C    0.95729998    0.50904996    0.50000000    0.03730000
opls_178-62    C    0.00626990    0.48591980    0.50000000    -0.01980000
opls_145-63    C    0.52771988    0.97189976    0.49628913    0.07730000
opls_145-64    C    0.45042001    0.03285001    0.73005000    -0.13000000
opls_145-65    C    0.44362001    0.06570002    0.72768913    -0.16390000
opls_145-66    C    0.48067001    0.08910002    0.27848913    -0.16350000
opls_145-67    C    0.48753006    0.05629012    0.28008043    -0.18690000
opls_145-68    C    0.48418991    0.38826982    0.27166957    -0.16350000
opls_145-69    C    0.47731001    0.42108003    0.27308043    -0.16770000
opls_145-70    C    0.51119998    0.44247997    0.73616957    -0.12720000
opls_145-71    C    0.51801999    0.40963999    0.73396957    -0.16380000
opls_145-72    C    0.54179999    0.90628999    0.50000000    0.21370000
opls_142-73    C    0.51711999    0.83674998    0.50000000    0.08840000
opls_700-74    C    0.51842989    0.79855978    0.50000000    0.05620000
opls_145-75    C    0.48162988    0.76185976    0.50000000    -0.11520000
opls_145-76    C    0.48160990    0.72506979    0.50000000    -0.11710000
opls_700-77    C    0.51830990    0.72506979    0.50000000    0.05740000
opls_145-78    C    0.55509991    0.76176982    0.50000000    -0.11520000
opls_145-79    C    0.55511989    0.79855978    0.50000000    -0.11630000
opls_142-80    C    0.51961994    0.68686987    0.50000000    0.07530000
opls_145-81    C    0.49493993    0.61732986    0.50000000    0.21400000
opls_145-82    C    0.50904994    0.55174987    0.50000000    0.03730000
opls_178-83    C    0.48592004    0.47965008    0.50000000    -0.01980000
opls_145-84    C    0.02809994    0.55581989    0.49628913    0.07730000
opls_145-85    C    0.96715002    0.41757004    0.73005000    -0.13000000
opls_145-86    C    0.93430003    0.37792006    0.72768913    -0.16390000
opls_145-87    C    0.91089992    0.39156984    0.27848913    -0.16350000
opls_145-88    C    0.94370994    0.43123987    0.28008043    -0.18690000
opls_145-89    C    0.61173002    0.09592005    0.27166957    -0.16350000
opls_145-90    C    0.57891998    0.05622996    0.27308043    -0.16770000
opls_145-91    C    0.55751993    0.06871987    0.73616957    -0.12720000
opls_145-92    C    0.59035994    0.10837987    0.73396957    -0.16380000
opls_145-93    C    0.09371001    0.63551001    0.50000000    0.21370000
opls_142-94    C    0.16324991    0.68036982    0.50000000    0.08840000
opls_700-95    C    0.20144000    0.71986999    0.50000000    0.05620000
opls_145-96    C    0.23814001    0.71977002    0.50000000    -0.11520000
opls_145-97    C    0.27492997    0.75653993    0.50000000    -0.11710000
opls_700-98    C    0.27492998    0.79323996    0.50000000    0.05740000
opls_145-99    C    0.23822995    0.79332990    0.50000000    -0.11520000
opls_145-100    C    0.20143999    0.75655999    0.50000000    -0.11630000
opls_142-101    C    0.31312993    0.83274986    0.50000000    0.07530000
opls_145-102    C    0.38266998    0.87760996    0.50000000    0.21400000
opls_145-103    C    0.44824989    0.95729979    0.50000000    0.03730000
opls_178-104    C    0.52035001    0.00627002    0.50000000    -0.01980000
opls_145-105    C    0.44418003    0.47228005    0.49628913    0.07730000
opls_145-106    C    0.58242997    0.54957995    0.73005000    -0.13000000
opls_145-107    C    0.62207996    0.55637992    0.72768913    -0.16390000
opls_145-108    C    0.60842992    0.51932984    0.27848913    -0.16350000
opls_145-109    C    0.56876000    0.51247000    0.28008043    -0.18690000
opls_145-110    C    0.90407991    0.51580982    0.27166957    -0.16350000
opls_145-111    C    0.94377001    0.52269001    0.27308043    -0.16770000
opls_145-112    C    0.93127993    0.48879986    0.73616957    -0.12720000
opls_145-113    C    0.89161992    0.48197984    0.73396957    -0.16380000
opls_145-114    C    0.36449000    0.45820000    0.50000000    0.21370000
opls_142-115    C    0.31962995    0.48287990    0.50000000    0.08840000
opls_700-116    C    0.28012996    0.48156992    0.50000000    0.05620000
opls_145-117    C    0.28022996    0.51836992    0.50000000    -0.11520000
opls_145-118    C    0.24345999    0.51838997    0.50000000    -0.11710000
opls_700-119    C    0.20675997    0.48168995    0.50000000    0.05740000
opls_145-120    C    0.20666999    0.44489998    0.50000000    -0.11520000
opls_145-121    C    0.24343996    0.44487992    0.50000000    -0.11630000
opls_142-122    C    0.16724998    0.48037997    0.50000000    0.07530000
opls_145-123    C    0.12238993    0.50505987    0.50000000    0.21400000
opls_145-124    C    0.04270002    0.49095004    0.50000000    0.03730000
opls_178-125    C    0.99372995    0.51407990    0.50000000    -0.01980000
opls_146-126    H    0.56110987    0.98880974    0.90776957    0.11550000
opls_146-127    H    0.57300998    0.93033997    0.90428043    0.11550000
opls_146-128    H    0.50704995    0.88867989    0.10458043    0.11560000
opls_146-129    H    0.49502988    0.94706975    0.10655000    0.11490000
opls_146-130    H    0.52684995    0.63315990    0.09253043    0.11560000
opls_146-131    H    0.53888003    0.57478007    0.09425000    0.11570000
opls_146-132    H    0.47854003    0.53666007    0.91883043    0.11490000
opls_146-133    H    0.46661989    0.59510978    0.91556087    0.11510000
opls_144-134    H    0.51355001    0.16600003    0.50000000    0.04620000
opls_146-135    H    0.54710004    0.23852008    0.50000000    0.11510000
opls_146-136    H    0.54706005    0.30334009    0.50000000    0.11510000
opls_146-137    H    0.41617004    0.23786007    0.50000000    0.11570000
opls_146-138    H    0.41621003    0.17304006    0.50000000    0.11800000
opls_144-139    H    0.44971997    0.30954995    0.50000000    0.06500000
opls_146-140    H    0.01118995    0.57229989    0.90776957    0.11490000
opls_146-141    H    0.06965988    0.64266976    0.90428043    0.11550000
opls_146-142    H    0.11132000    0.61837001    0.10458043    0.11560000
opls_146-143    H    0.05293001    0.54796002    0.10655000    0.11490000
opls_146-144    H    0.36683989    0.89368978    0.09253043    0.11560000
opls_146-145    H    0.42521988    0.96409976    0.09425000    0.11570000
opls_146-146    H    0.46333999    0.94187998    0.91883043    0.11490000
opls_146-147    H    0.40488990    0.87150980    0.91556087    0.11510000
opls_144-148    H    0.83399996    0.34754992    0.50000000    0.04620000
opls_146-149    H    0.76148000    0.30858000    0.50000000    0.11510000
opls_146-150    H    0.69665994    0.24371987    0.50000000    0.11510000
opls_146-151    H    0.76214002    0.17831005    0.50000000    0.11570000
opls_146-152    H    0.82695994    0.24316987    0.50000000    0.11800000
opls_144-153    H    0.69045000    0.14016999    0.50000000    0.06500000
opls_146-154    H    0.42770003    0.43889007    0.90776957    0.11490000
opls_146-155    H    0.35732998    0.42698997    0.90428043    0.11550000
opls_146-156    H    0.38162990    0.49294979    0.10458043    0.11560000
opls_146-157    H    0.45203996    0.50496992    0.10655000    0.11490000
opls_146-158    H    0.10631001    0.47315003    0.09253043    0.11560000
opls_146-159    H    0.03589994    0.46111987    0.09425000    0.11570000
opls_146-160    H    0.05811998    0.52145995    0.91883043    0.11490000
opls_146-161    H    0.12848990    0.53337980    0.91556087    0.11510000
opls_144-162    H    0.65245002    0.48645005    0.50000000    0.04620000
opls_146-163    H    0.69141996    0.45289992    0.50000000    0.11510000
opls_146-164    H    0.75628002    0.45294003    0.50000000    0.11510000
opls_146-165    H    0.82168994    0.58382988    0.50000000    0.11570000
opls_146-166    H    0.75682988    0.58378977    0.50000000    0.11800000
opls_144-167    H    0.85983003    0.55028006    0.50000000    0.06500000
opls_146-168    H    0.43888998    0.01118996    0.90776957    0.11490000
opls_146-169    H    0.42699002    0.06966003    0.90428043    0.11550000
opls_146-170    H    0.49295005    0.11132011    0.10458043    0.11560000
opls_146-171    H    0.50496997    0.05292995    0.10655000    0.11490000
opls_146-172    H    0.47314990    0.36683980    0.09253043    0.11560000
opls_146-173    H    0.46111997    0.42521993    0.09425000    0.11570000
opls_146-174    H    0.52145997    0.46333993    0.91883043    0.11490000
opls_146-175    H    0.53337996    0.40488991    0.91556087    0.11510000
opls_144-176    H    0.48644999    0.83399997    0.50000000    0.04620000
opls_146-177    H    0.45289996    0.76147992    0.50000000    0.11510000
opls_146-178    H    0.45293995    0.69665991    0.50000000    0.11510000
opls_146-179    H    0.58382996    0.76213993    0.50000000    0.11570000
opls_146-180    H    0.58378997    0.82695994    0.50000000    0.11800000
opls_144-181    H    0.55028003    0.69045005    0.50000000    0.06500000
opls_146-182    H    0.98880990    0.42769980    0.90776957    0.11490000
opls_146-183    H    0.93033997    0.35732993    0.90428043    0.11550000
opls_146-184    H    0.88868000    0.38162999    0.10458043    0.11560000
opls_146-185    H    0.94706999    0.45203998    0.10655000    0.11490000
opls_146-186    H    0.63315996    0.10630992    0.09253043    0.11560000
opls_146-187    H    0.57477997    0.03589994    0.09425000    0.11570000
opls_146-188    H    0.53666001    0.05812002    0.91883043    0.11490000
opls_146-189    H    0.59510995    0.12848989    0.91556087    0.11510000
opls_144-190    H    0.16599989    0.65244977    0.50000000    0.04620000
opls_146-191    H    0.23852000    0.69142000    0.50000000    0.11510000
opls_146-192    H    0.30333991    0.75627982    0.50000000    0.11510000
opls_146-193    H    0.23785998    0.82168995    0.50000000    0.11570000
opls_146-194    H    0.17303991    0.75682982    0.50000000    0.11800000
opls_144-195    H    0.30955000    0.85983001    0.50000000    0.06500000
opls_146-196    H    0.57229997    0.56110993    0.90776957    0.11490000
opls_146-197    H    0.64267002    0.57301003    0.90428043    0.11550000
opls_146-198    H    0.61836995    0.50704990    0.10458043    0.11560000
opls_146-199    H    0.54796004    0.49503008    0.10655000    0.11490000
opls_146-200    H    0.89368999    0.52684997    0.09253043    0.11560000
opls_146-201    H    0.96409991    0.53887983    0.09425000    0.11570000
opls_146-202    H    0.94188002    0.47854005    0.91883043    0.11490000
opls_146-203    H    0.87150995    0.46661989    0.91556087    0.11510000
opls_144-204    H    0.34754998    0.51354995    0.50000000    0.04620000
opls_146-205    H    0.30857989    0.54709977    0.50000000    0.11510000
opls_146-206    H    0.24371998    0.54705997    0.50000000    0.11510000
opls_146-207    H    0.17830991    0.41616982    0.50000000    0.11570000
opls_146-208    H    0.24316996    0.41620993    0.50000000    0.11800000
opls_144-209    H    0.14016997    0.44971994    0.50000000    0.06500000
opls_750-210    N    0.45180992    0.12692983    0.50000000    -0.28140000
opls_750-211    N    0.51145999    0.34943999    0.50000000    -0.28550000
opls_750-212    N    0.87306991    0.32487981    0.50000000    -0.28140000
opls_750-213    N    0.65055998    0.16201996    0.50000000    -0.28550000
opls_750-214    N    0.67512003    0.54819005    0.50000000    -0.28140000
opls_750-215    N    0.83798003    0.48854005    0.50000000    -0.28550000
opls_750-216    N    0.54818993    0.87306987    0.50000000    -0.28140000
opls_750-217    N    0.48854001    0.65056001    0.50000000    -0.28550000
opls_750-218    N    0.12692994    0.67511988    0.50000000    -0.28140000
opls_750-219    N    0.34943987    0.83797974    0.50000000    -0.28550000
opls_750-220    N    0.32487997    0.45180995    0.50000000    -0.28140000
opls_750-221    N    0.16201997    0.51145995    0.50000000    -0.28550000
