#======================================================================
# Crystal Data Generated By AuToFF
#----------------------------------------------------------------------

data_AuToFF_phase_1

_cell_length_a                         18.3700
_cell_length_b                         18.3700
_cell_length_c                         3.4700
_cell_angle_alpha                      90.00
_cell_angle_beta                       90.00
_cell_angle_gamma                      120.00
_symmetry_space_group_name_H-M_alt     'P 1'
_symmetry_space_group_IT_number        1

loop_
_space_group_symop_operation_xyz
   'x, y, z'

loop_
   _atom_site_label
   _atom_site_type_symbol
   _atom_site_fract_x
   _atom_site_fract_y
   _atom_site_fract_z
   _atom_site_charge
opls_281-0    O    0.50509972    0.76099967    0.74380115    -0.46990000
opls_281-1    O    0.23899976    0.74409968    0.74380115    -0.46990000
opls_281-2    O    0.25590020    0.49490002    0.74380115    -0.46990000
opls_238-3    N    0.48889964    0.89729956    0.58819885    -0.23560000
opls_238-4    N    0.10269986    0.59160004    0.58819885    -0.23560000
opls_238-5    N    0.40839964    0.51109977    0.58819885    -0.23560000
opls_280-6    C    0.42529996    0.71740015    0.73819885    0.32060000
opls_700-7    C    0.37369959    0.75639972    0.72910086    -0.16170000
opls_142-8    C    0.40909952    0.84449952    0.68629971    -0.04760000
opls_916-9    C    0.52429999    0.97989992    0.51070029    0.21080000
opls_145-10    C    0.60929968    0.03289984    0.59540058    -0.17230000
opls_145-11    C    0.47729991    0.01389978    0.35650144    -0.15890000
opls_700-12    C    0.63319978    0.24579968    0.39300000    0.07750000
opls_145-13    C    0.71990004    0.30039997    0.39189914    -0.09840000
opls_700-14    C    0.59769965    0.15439984    0.41440058    0.06880000
opls_145-15    C    0.51390031    0.09960029    0.30970029    -0.12980000
opls_145-16    C    0.64480023    0.11880024    0.55059942    -0.12450000
opls_280-17    C    0.28259987    0.70789980    0.73819885    0.32060000
opls_700-18    C    0.24359999    0.61730014    0.72910086    -0.16160000
opls_142-19    C    0.15549980    0.56460004    0.68629971    -0.04750000
opls_916-20    C    0.02009985    0.54440002    0.51070029    0.21080000
opls_145-21    C    0.96709970    0.57639974    0.59540058    -0.17230000
opls_145-22    C    0.98610012    0.46340002    0.35650144    -0.15890000
opls_700-23    C    0.75420015    0.38739975    0.39300000    0.07750000
opls_145-24    C    0.69959978    0.41950004    0.39189914    -0.09840000
opls_700-25    C    0.84559989    0.44329994    0.41440058    0.06880000
opls_145-26    C    0.90039977    0.41429980    0.30970029    -0.12980000
opls_145-27    C    0.88119959    0.52599961    0.55059942    -0.12440000
opls_280-28    C    0.29210016    0.57470006    0.73819885    0.32070000
opls_700-29    C    0.38269988    0.62630014    0.72910086    -0.16170000
opls_142-30    C    0.43539982    0.59089981    0.68629971    -0.04750000
opls_916-31    C    0.45560017    0.47570006    0.51070029    0.21080000
opls_145-32    C    0.42359976    0.39069979    0.59540058    -0.17230000
opls_145-33    C    0.53659996    0.52270020    0.35650144    -0.15880000
opls_700-34    C    0.61259976    0.36679995    0.39300000    0.07750000
opls_145-35    C    0.58050019    0.28009999    0.39189914    -0.09840000
opls_700-36    C    0.55669992    0.40230022    0.41440058    0.06880000
opls_145-37    C    0.58569993    0.48609991    0.30970029    -0.12980000
opls_145-38    C    0.47400018    0.35520014    0.55059942    -0.12450000
opls_910-39    H    0.52410009    0.86610002    0.57719885    0.26620000
opls_144-40    H    0.36600011    0.86849994    0.72270029    0.10370000
opls_146-41    H    0.64590026    0.00630025    0.71419885    0.10750000
opls_146-42    H    0.41249989    0.97309995    0.26629971    0.11060000
opls_146-43    H    0.76160013    0.27440004    0.39910086    0.11310000
opls_146-44    H    0.47680002    0.12440026    0.17989914    0.10910000
opls_146-45    H    0.70979962    0.15919967    0.63910086    0.11060000
opls_910-46    H    0.13389985    0.65800002    0.57719885    0.26610000
opls_144-47    H    0.13150005    0.49749983    0.72270029    0.10370000
opls_146-48    H    0.99369965    0.63959962    0.71419885    0.10750000
opls_146-49    H    0.02689959    0.43939961    0.26629971    0.11060000
opls_146-50    H    0.72559996    0.48719992    0.39910086    0.11310000
opls_146-51    H    0.87560002    0.35239982    0.17989914    0.10920000
opls_146-52    H    0.84079958    0.55059970    0.63910086    0.11060000
opls_910-53    H    0.34200006    0.47589995    0.57719885    0.26610000
opls_144-54    H    0.50249953    0.63399961    0.72270029    0.10370000
opls_146-55    H    0.36040009    0.35410013    0.71419885    0.10750000
opls_146-56    H    0.56059966    0.58749982    0.26629971    0.11070000
opls_146-57    H    0.51279991    0.23840004    0.39910086    0.11310000
opls_146-58    H    0.64759996    0.52319992    0.17989914    0.10910000
opls_146-59    H    0.44939995    0.29020001    0.63910086    0.11060000
