#======================================================================
# Crystal Data Generated By AuToFF
#----------------------------------------------------------------------

data_AuToFF_phase_1

_cell_length_a                         30.2960
_cell_length_b                         7.4310
_cell_length_c                         25.4640
_cell_angle_alpha                      90.00
_cell_angle_beta                       96.97
_cell_angle_gamma                      90.00
_symmetry_space_group_name_H-M_alt     'P 1'
_symmetry_space_group_IT_number        1

loop_
_space_group_symop_operation_xyz
   'x, y, z'

loop_
   _atom_site_label
   _atom_site_type_symbol
   _atom_site_fract_x
   _atom_site_fract_y
   _atom_site_fract_z
   _atom_site_charge
opls_700-0    C    0.53261005    0.51983044    0.28334995    0.04490000
opls_700-1    C    0.97554983    0.76466021    0.28512993    0.04490000
opls_145-2    C    0.92873981    0.75719957    0.28233989    -0.11220000
opls_145-3    C    0.93273988    0.50347060    0.34209000    0.19390000
opls_145-4    C    0.55761012    0.64218948    0.25657986    -0.11940000
opls_145-5    C    0.00032990    0.63726013    0.31777010    -0.13250000
opls_145-6    C    0.90796991    0.63055982    0.31103990    -0.18270000
opls_145-7    C    0.53610004    0.53197955    0.33914012    -0.13270000
opls_145-8    C    0.58926987    0.77656036    0.33939016    0.19380000
opls_145-9    C    0.56458010    0.65723052    0.36661009    -0.16890000
opls_145-10    C    0.97929005    0.50872965    0.34616982    -0.17090000
opls_145-11    C    0.58648016    0.76422016    0.28409019    -0.17680000
opls_700-12    C    0.22489993    0.88491051    0.97100999    -0.05580000
opls_166-13    C    0.26105994    0.80387969    0.95035014    0.16070000
opls_700-14    C    0.28620988    0.66958014    0.97902997    -0.06300000
opls_145-15    C    0.31947005    0.50538016    0.11158983    -0.11690000
opls_145-16    C    0.13325004    0.91570044    0.01811985    -0.13070000
opls_700-17    C    0.17672004    0.91528058    0.04466007    0.07070000
opls_145-18    C    0.18550012    0.00208989    0.09357997    -0.12630000
opls_145-19    C    0.15200986    0.09614049    0.11437988    -0.12020000
opls_700-20    C    0.10937016    0.10944960    0.08592002    0.05300000
opls_145-21    C    0.09969002    0.01329969    0.03854983    -0.12690000
opls_145-22    C    0.34242989    0.37020051    0.14122988    -0.11690000
opls_700-23    C    0.34688001    0.19883057    0.11944998    0.05230000
opls_145-24    C    0.32739994    0.16334948    0.06762016    -0.12130000
opls_145-25    C    0.30401013    0.29867043    0.03813005    -0.11900000
opls_700-26    C    0.30008986    0.47090970    0.05982014    0.06860000
opls_142-27    C    0.07673007    0.23466963    0.10384996    0.07350000
opls_142-28    C    0.37230013    0.06164985    0.15166999    0.07760000
opls_181-29    C    0.30331996    0.00396044    0.40182983    -0.20080000
opls_700-30    C    0.03261005    0.01983044    0.28334995    0.04490000
opls_700-31    C    0.47554983    0.26466021    0.28512993    0.04490000
opls_145-32    C    0.42873981    0.25719957    0.28233989    -0.11220000
opls_145-33    C    0.43273988    0.00347060    0.34209000    0.19400000
opls_145-34    C    0.05761012    0.14218948    0.25657986    -0.11940000
opls_145-35    C    0.50032990    0.13726013    0.31777010    -0.13250000
opls_145-36    C    0.40796991    0.13055982    0.31103990    -0.18270000
opls_145-37    C    0.03610004    0.03197955    0.33914012    -0.13270000
opls_145-38    C    0.08926987    0.27656036    0.33939016    0.19370000
opls_145-39    C    0.06458010    0.15723052    0.36661009    -0.16890000
opls_145-40    C    0.47929005    0.00872965    0.34616982    -0.17090000
opls_145-41    C    0.08648016    0.26422016    0.28409019    -0.17680000
opls_700-42    C    0.72489993    0.38491051    0.97100999    -0.05580000
opls_166-43    C    0.76105994    0.30387969    0.95035014    0.16070000
opls_700-44    C    0.78620988    0.16958014    0.97902997    -0.06300000
opls_145-45    C    0.81947005    0.00538016    0.11158983    -0.11690000
opls_145-46    C    0.63325004    0.41570044    0.01811985    -0.13070000
opls_700-47    C    0.67672004    0.41528058    0.04466007    0.07070000
opls_145-48    C    0.68550012    0.50208989    0.09357997    -0.12630000
opls_145-49    C    0.65200986    0.59614049    0.11437988    -0.12020000
opls_700-50    C    0.60937016    0.60944960    0.08592002    0.05300000
opls_145-51    C    0.59969002    0.51329969    0.03854983    -0.12690000
opls_145-52    C    0.84242989    0.87020051    0.14122988    -0.11680000
opls_700-53    C    0.84688001    0.69883057    0.11944998    0.05230000
opls_145-54    C    0.82739994    0.66334948    0.06762016    -0.12130000
opls_145-55    C    0.80401013    0.79867043    0.03813005    -0.11900000
opls_700-56    C    0.80008986    0.97090970    0.05982014    0.06860000
opls_142-57    C    0.57673007    0.73466963    0.10384996    0.07340000
opls_142-58    C    0.87230013    0.56164985    0.15166999    0.07760000
opls_181-59    C    0.80331996    0.50396044    0.40182983    -0.20080000
opls_700-60    C    0.46739011    0.51983044    0.21665005    0.04490000
opls_700-61    C    0.02445001    0.76466021    0.21487007    0.04490000
opls_145-62    C    0.07126003    0.75719957    0.21766011    -0.11220000
opls_145-63    C    0.06725996    0.50347060    0.15791000    0.19390000
opls_145-64    C    0.44239005    0.64218948    0.24342014    -0.11940000
opls_145-65    C    0.99966993    0.63726013    0.18222990    -0.13240000
opls_145-66    C    0.09202993    0.63055982    0.18896010    -0.18270000
opls_145-67    C    0.46390013    0.53197955    0.16085988    -0.13270000
opls_145-68    C    0.41072997    0.77656036    0.16060984    0.19360000
opls_145-69    C    0.43542006    0.65723052    0.13338991    -0.16890000
opls_145-70    C    0.02071012    0.50872965    0.15383018    -0.17090000
opls_145-71    C    0.41352001    0.76422016    0.21590981    -0.17680000
opls_700-72    C    0.77509990    0.88491051    0.52899001    -0.05580000
opls_166-73    C    0.73893989    0.80387969    0.54964986    0.16070000
opls_700-74    C    0.71378995    0.66958014    0.52097003    -0.06300000
opls_145-75    C    0.68053012    0.50538016    0.38841017    -0.11690000
opls_145-76    C    0.86675013    0.91570044    0.48188015    -0.13070000
opls_700-77    C    0.82328012    0.91528058    0.45533993    0.07070000
opls_145-78    C    0.81450005    0.00208989    0.40642003    -0.12630000
opls_145-79    C    0.84798997    0.09614049    0.38562012    -0.12020000
opls_700-80    C    0.89063000    0.10944960    0.41407998    0.05300000
opls_145-81    C    0.90031015    0.01329969    0.46145017    -0.12690000
opls_145-82    C    0.65756994    0.37020051    0.35877012    -0.11690000
opls_700-83    C    0.65311983    0.19883057    0.38055002    0.05230000
opls_145-84    C    0.67259989    0.16334948    0.43237984    -0.12130000
opls_145-85    C    0.69599004    0.29867043    0.46186995    -0.11900000
opls_700-86    C    0.69990997    0.47090970    0.44017986    0.06860000
opls_142-87    C    0.92327009    0.23466963    0.39615004    0.07340000
opls_142-88    C    0.62770003    0.06164985    0.34833001    0.07760000
opls_181-89    C    0.69667988    0.00396044    0.09817017    -0.20080000
opls_700-90    C    0.96739011    0.01983044    0.21665005    0.04490000
opls_700-91    C    0.52445001    0.26466021    0.21487007    0.04490000
opls_145-92    C    0.57126003    0.25719957    0.21766011    -0.11220000
opls_145-93    C    0.56725996    0.00347060    0.15791000    0.19390000
opls_145-94    C    0.94239005    0.14218948    0.24342014    -0.11940000
opls_145-95    C    0.49966993    0.13726013    0.18222990    -0.13250000
opls_145-96    C    0.59202993    0.13055982    0.18896010    -0.18270000
opls_145-97    C    0.96390013    0.03197955    0.16085988    -0.13270000
opls_145-98    C    0.91072997    0.27656036    0.16060984    0.19360000
opls_145-99    C    0.93542006    0.15723052    0.13338991    -0.16890000
opls_145-100    C    0.52071012    0.00872965    0.15383018    -0.17090000
opls_145-101    C    0.91352001    0.26422016    0.21590981    -0.17680000
opls_700-102    C    0.27509990    0.38491051    0.52899001    -0.05580000
opls_166-103    C    0.23893989    0.30387969    0.54964986    0.16070000
opls_700-104    C    0.21378995    0.16958014    0.52097003    -0.06300000
opls_145-105    C    0.18053012    0.00538016    0.38841017    -0.11690000
opls_145-106    C    0.36675013    0.41570044    0.48188015    -0.13070000
opls_700-107    C    0.32328012    0.41528058    0.45533993    0.07070000
opls_145-108    C    0.31450005    0.50208989    0.40642003    -0.12630000
opls_145-109    C    0.34798997    0.59614049    0.38562012    -0.12020000
opls_700-110    C    0.39063000    0.60944960    0.41407998    0.05300000
opls_145-111    C    0.40031015    0.51329969    0.46145017    -0.12690000
opls_145-112    C    0.15756994    0.87020051    0.35877012    -0.11690000
opls_700-113    C    0.15311983    0.69883057    0.38055002    0.05230000
opls_145-114    C    0.17259989    0.66334948    0.43237984    -0.12130000
opls_145-115    C    0.19599004    0.79867043    0.46186995    -0.11900000
opls_700-116    C    0.19990997    0.97090970    0.44017986    0.06860000
opls_142-117    C    0.42327009    0.73466963    0.39615004    0.07340000
opls_142-118    C    0.12770003    0.56164985    0.34833001    0.07760000
opls_181-119    C    0.19667988    0.50396044    0.09817017    -0.20080000
opls_700-120    C    0.46738995    0.48016956    0.71665005    0.04490000
opls_700-121    C    0.02444984    0.23533979    0.71487007    0.04500000
opls_145-122    C    0.07125986    0.24280043    0.71766011    -0.11220000
opls_145-123    C    0.06726012    0.49652940    0.65791000    0.19390000
opls_145-124    C    0.44238988    0.35781052    0.74342014    -0.11940000
opls_145-125    C    0.99967010    0.36273987    0.68222990    -0.13250000
opls_145-126    C    0.09203009    0.36944018    0.68896010    -0.18270000
opls_145-127    C    0.46389996    0.46802045    0.66085988    -0.13270000
opls_145-128    C    0.41072980    0.22343964    0.66060984    0.19360000
opls_145-129    C    0.43541990    0.34276948    0.63338991    -0.16890000
opls_145-130    C    0.02070995    0.49127035    0.65383018    -0.17090000
opls_145-131    C    0.41351988    0.23577984    0.71591021    -0.17680000
opls_700-132    C    0.77510007    0.11508949    0.02899001    -0.05580000
opls_166-133    C    0.73894006    0.19612031    0.04964986    0.16070000
opls_700-134    C    0.71379012    0.33041986    0.02097003    -0.06300000
opls_145-135    C    0.68052995    0.49461984    0.88841017    -0.11690000
opls_145-136    C    0.86674996    0.08429956    0.98188015    -0.13070000
opls_700-137    C    0.82327996    0.08471942    0.95533993    0.07070000
opls_145-138    C    0.81449988    0.99791011    0.90642003    -0.12630000
opls_145-139    C    0.84798981    0.90385951    0.88562012    -0.12020000
opls_700-140    C    0.89062984    0.89055040    0.91407998    0.05300000
opls_145-141    C    0.90030998    0.98670031    0.96145017    -0.12690000
opls_145-142    C    0.65757011    0.62979949    0.85877012    -0.11690000
opls_700-143    C    0.65311999    0.80116943    0.88055002    0.05230000
opls_145-144    C    0.67260006    0.83665052    0.93237984    -0.12130000
opls_145-145    C    0.69598987    0.70132957    0.96186995    -0.11900000
opls_700-146    C    0.69990981    0.52909030    0.94017986    0.06860000
opls_142-147    C    0.92326993    0.76533037    0.89615004    0.07340000
opls_142-148    C    0.62769987    0.93835015    0.84833001    0.07760000
opls_181-149    C    0.69668004    0.99603956    0.59817017    -0.20080000
opls_700-150    C    0.96738995    0.98016956    0.71665005    0.04490000
opls_700-151    C    0.52444984    0.73533979    0.71487007    0.04490000
opls_145-152    C    0.57125986    0.74280043    0.71766011    -0.11220000
opls_145-153    C    0.56726012    0.99652940    0.65791000    0.19390000
opls_145-154    C    0.94238988    0.85781052    0.74342014    -0.11940000
opls_145-155    C    0.49967010    0.86273987    0.68222990    -0.13250000
opls_145-156    C    0.59203009    0.86944018    0.68896010    -0.18270000
opls_145-157    C    0.96389996    0.96802045    0.66085988    -0.13270000
opls_145-158    C    0.91072980    0.72343964    0.66060984    0.19360000
opls_145-159    C    0.93541990    0.84276948    0.63338991    -0.16890000
opls_145-160    C    0.52070995    0.99127035    0.65383018    -0.17090000
opls_145-161    C    0.91351988    0.73577984    0.71591021    -0.17670000
opls_700-162    C    0.27510007    0.61508949    0.02899001    -0.05580000
opls_166-163    C    0.23894006    0.69612031    0.04964986    0.16070000
opls_700-164    C    0.21379012    0.83041986    0.02097003    -0.06300000
opls_145-165    C    0.18052995    0.99461984    0.88841017    -0.11690000
opls_145-166    C    0.36674996    0.58429956    0.98188015    -0.13070000
opls_700-167    C    0.32327996    0.58471942    0.95533993    0.07070000
opls_145-168    C    0.31449988    0.49791011    0.90642003    -0.12630000
opls_145-169    C    0.34798981    0.40385951    0.88562012    -0.12020000
opls_700-170    C    0.39062984    0.39055040    0.91407998    0.05300000
opls_145-171    C    0.40030998    0.48670031    0.96145017    -0.12690000
opls_145-172    C    0.15757011    0.12979949    0.85877012    -0.11690000
opls_700-173    C    0.15311999    0.30116943    0.88055002    0.05230000
opls_145-174    C    0.17260006    0.33665052    0.93237984    -0.12120000
opls_145-175    C    0.19598987    0.20132957    0.96186995    -0.11900000
opls_700-176    C    0.19990981    0.02909030    0.94017986    0.06860000
opls_142-177    C    0.42326993    0.26533037    0.89615004    0.07340000
opls_142-178    C    0.12769987    0.43835015    0.84833001    0.07760000
opls_181-179    C    0.19668004    0.49603956    0.59817017    -0.20080000
opls_700-180    C    0.53260989    0.48016956    0.78334995    0.04490000
opls_700-181    C    0.97554999    0.23533979    0.78512993    0.04490000
opls_145-182    C    0.92873997    0.24280043    0.78233989    -0.11220000
opls_145-183    C    0.93274004    0.49652940    0.84209000    0.19390000
opls_145-184    C    0.55760995    0.35781052    0.75657986    -0.11940000
opls_145-185    C    0.00033007    0.36273987    0.81777010    -0.13250000
opls_145-186    C    0.90797007    0.36944018    0.81103990    -0.18270000
opls_145-187    C    0.53609987    0.46802045    0.83914012    -0.13270000
opls_145-188    C    0.58927003    0.22343964    0.83939016    0.19370000
opls_145-189    C    0.56457994    0.34276948    0.86661009    -0.16890000
opls_145-190    C    0.97928992    0.49127035    0.84617022    -0.17090000
opls_145-191    C    0.58647999    0.23577984    0.78409019    -0.17670000
opls_700-192    C    0.22490010    0.11508949    0.47100999    -0.05580000
opls_166-193    C    0.26106011    0.19612031    0.45035014    0.16070000
opls_700-194    C    0.28621005    0.33041986    0.47902997    -0.06300000
opls_145-195    C    0.31946988    0.49461984    0.61158983    -0.11690000
opls_145-196    C    0.13324987    0.08429956    0.51811985    -0.13070000
opls_700-197    C    0.17671988    0.08471942    0.54466007    0.07090000
opls_145-198    C    0.18549995    0.99791011    0.59357997    -0.12630000
opls_145-199    C    0.15201003    0.90385951    0.61437988    -0.12020000
opls_700-200    C    0.10937000    0.89055040    0.58592002    0.05300000
opls_145-201    C    0.09968985    0.98670031    0.53854983    -0.12690000
opls_145-202    C    0.34243006    0.62979949    0.64122988    -0.11690000
opls_700-203    C    0.34687984    0.80116943    0.61944998    0.05230000
opls_145-204    C    0.32740011    0.83665052    0.56762016    -0.12130000
opls_145-205    C    0.30400996    0.70132957    0.53813005    -0.11900000
opls_700-206    C    0.30009003    0.52909030    0.55982014    0.06860000
opls_142-207    C    0.07672991    0.76533037    0.60384996    0.07340000
opls_142-208    C    0.37229997    0.93835015    0.65166999    0.07770000
opls_181-209    C    0.30331983    0.99603956    0.90183022    -0.20080000
opls_700-210    C    0.03260989    0.98016956    0.78334995    0.04500000
opls_700-211    C    0.47554999    0.73533979    0.78512993    0.04490000
opls_145-212    C    0.42873997    0.74280043    0.78233989    -0.11220000
opls_145-213    C    0.43274004    0.99652940    0.84209000    0.19390000
opls_145-214    C    0.05760995    0.85781052    0.75657986    -0.11940000
opls_145-215    C    0.50033007    0.86273987    0.81777010    -0.13250000
opls_145-216    C    0.40797007    0.86944018    0.81103990    -0.18270000
opls_145-217    C    0.03609987    0.96802045    0.83914012    -0.13270000
opls_145-218    C    0.08927003    0.72343964    0.83939016    0.19360000
opls_145-219    C    0.06457994    0.84276948    0.86661009    -0.16890000
opls_145-220    C    0.47928992    0.99127035    0.84617022    -0.17090000
opls_145-221    C    0.08647999    0.73577984    0.78409019    -0.17680000
opls_700-222    C    0.72490010    0.61508949    0.47100999    -0.05580000
opls_166-223    C    0.76106011    0.69612031    0.45035014    0.16070000
opls_700-224    C    0.78621005    0.83041986    0.47902997    -0.06300000
opls_145-225    C    0.81946988    0.99461984    0.61158983    -0.11690000
opls_145-226    C    0.63324987    0.58429956    0.51811985    -0.13070000
opls_700-227    C    0.67671988    0.58471942    0.54466007    0.07070000
opls_145-228    C    0.68549995    0.49791011    0.59357997    -0.12630000
opls_145-229    C    0.65201003    0.40385951    0.61437988    -0.12020000
opls_700-230    C    0.60937000    0.39055040    0.58592002    0.05300000
opls_145-231    C    0.59968985    0.48670031    0.53854983    -0.12690000
opls_145-232    C    0.84243006    0.12979949    0.64122988    -0.11690000
opls_700-233    C    0.84687984    0.30116943    0.61944998    0.05230000
opls_145-234    C    0.82740011    0.33665052    0.56762016    -0.12130000
opls_145-235    C    0.80400996    0.20132957    0.53813005    -0.11900000
opls_700-236    C    0.80009003    0.02909030    0.55982014    0.06860000
opls_142-237    C    0.57672991    0.26533037    0.60384996    0.07340000
opls_142-238    C    0.87229997    0.43835015    0.65166999    0.07770000
opls_181-239    C    0.80331983    0.49603956    0.90183022    -0.20080000
opls_701-240    C    0.50000008    0.39190015    0.25000000    0.00440000
opls_701-241    C    0.00000008    0.89190015    0.25000000    0.00440000
opls_701-242    C    0.49999992    0.60809985    0.75000000    0.00440000
opls_701-243    C    0.99999992    0.10809985    0.75000000    0.00440000
opls_750-244    N    0.61570997    0.91176019    0.36868996    -0.35450000
opls_750-245    N    0.90854006    0.36496972    0.36498995    -0.30180000
opls_750-246    N    0.11570997    0.41176019    0.36868996    -0.35450000
opls_750-247    N    0.40854006    0.86496972    0.36498995    -0.30170000
opls_750-248    N    0.38428986    0.91176019    0.13131004    -0.35460000
opls_750-249    N    0.09146011    0.36496972    0.13501005    -0.30180000
opls_750-250    N    0.88428986    0.41176019    0.13131004    -0.35440000
opls_750-251    N    0.59146011    0.86496972    0.13501005    -0.30180000
opls_750-252    N    0.38429003    0.08823981    0.63131004    -0.35460000
opls_750-253    N    0.09145994    0.63503028    0.63501005    -0.30180000
opls_750-254    N    0.88429003    0.58823981    0.63131004    -0.35460000
opls_750-255    N    0.59145994    0.13503028    0.63501005    -0.30180000
opls_750-256    N    0.61570981    0.08823981    0.86868996    -0.35450000
opls_750-257    N    0.90853989    0.63503028    0.86498995    -0.30170000
opls_750-258    N    0.11570981    0.58823981    0.86868996    -0.35440000
opls_750-259    N    0.40853989    0.13503028    0.86498995    -0.30180000
opls_179-260    O    0.27161004    0.14584040    0.40025993    -0.19650000
opls_179-261    O    0.77161004    0.64584040    0.40025993    -0.19650000
opls_179-262    O    0.72839013    0.14584040    0.09974007    -0.19650000
opls_179-263    O    0.22839013    0.64584040    0.09974007    -0.19640000
opls_179-264    O    0.72838996    0.85415960    0.59974007    -0.19650000
opls_179-265    O    0.22838996    0.35415960    0.59974007    -0.19640000
opls_179-266    O    0.27160987    0.85415960    0.90025993    -0.19650000
opls_179-267    O    0.77160987    0.35415960    0.90025993    -0.19650000
opls_146-268    H    0.90719989    0.84264029    0.25659015    0.09480000
opls_146-269    H    0.55534003    0.63986947    0.21382994    0.11660000
opls_146-270    H    0.03619988    0.63610954    0.32046005    0.12010000
opls_146-271    H    0.87197001    0.62603014    0.30708984    0.11760000
opls_146-272    H    0.51607985    0.45023954    0.36210021    0.11890000
opls_146-273    H    0.56597001    0.66623066    0.40918989    0.11930000
opls_146-274    H    0.99943004    0.41262952    0.37002999    0.11480000
opls_146-275    H    0.60662005    0.84751043    0.26174018    0.11810000
opls_146-276    H    0.31686009    0.63733010    0.12899991    0.11520000
opls_146-277    H    0.12588992    0.84563989    0.98084002    0.11880000
opls_146-278    H    0.21874990    0.00253936    0.11476998    0.11390000
opls_146-279    H    0.16003991    0.16480016    0.15182983    0.11520000
opls_146-280    H    0.06687990    0.01992060    0.01637983    0.11640000
opls_146-281    H    0.35710015    0.40048042    0.18109006    0.12010000
opls_146-282    H    0.33009015    0.03167945    0.05000989    0.11390000
opls_146-283    H    0.28906987    0.26949939    0.99837986    0.12180000
opls_144-284    H    0.04184989    0.22201992    0.08914012    0.11790000
opls_144-285    H    0.38332999    0.09470058    0.19241007    0.11480000
opls_185-286    H    0.31086988    0.97754003    0.36100983    0.07230000
opls_185-287    H    0.28947987    0.87934060    0.41729019    0.07280000
opls_185-288    H    0.33475988    0.04136994    0.42659007    0.08270000
opls_146-289    H    0.40719989    0.34264029    0.25659015    0.09480000
opls_146-290    H    0.05534003    0.13986947    0.21382994    0.11660000
opls_146-291    H    0.53619988    0.13610954    0.32046005    0.12010000
opls_146-292    H    0.37197001    0.12603014    0.30708984    0.11760000
opls_146-293    H    0.01607985    0.95023954    0.36210021    0.11890000
opls_146-294    H    0.06597001    0.16623066    0.40918989    0.11930000
opls_146-295    H    0.49943004    0.91262952    0.37002999    0.11480000
opls_146-296    H    0.10662005    0.34751043    0.26174018    0.11820000
opls_146-297    H    0.81686009    0.13733010    0.12899991    0.11520000
opls_146-298    H    0.62588992    0.34563989    0.98084002    0.11880000
opls_146-299    H    0.71874990    0.50253936    0.11476998    0.11390000
opls_146-300    H    0.66003991    0.66480016    0.15182983    0.11520000
opls_146-301    H    0.56687990    0.51992060    0.01637983    0.11630000
opls_146-302    H    0.85710015    0.90048042    0.18109006    0.12010000
opls_146-303    H    0.83009015    0.53167945    0.05000989    0.11390000
opls_146-304    H    0.78906987    0.76949939    0.99837986    0.12180000
opls_144-305    H    0.54184989    0.72201992    0.08914012    0.11790000
opls_144-306    H    0.88332999    0.59470058    0.19241007    0.11480000
opls_185-307    H    0.81086988    0.47754003    0.36100983    0.07230000
opls_185-308    H    0.78947987    0.37934060    0.41729019    0.07280000
opls_185-309    H    0.83475988    0.54136994    0.42659007    0.08260000
opls_146-310    H    0.09279994    0.84264029    0.24340985    0.09480000
opls_146-311    H    0.44466014    0.63986947    0.28617006    0.11660000
opls_146-312    H    0.96379995    0.63610954    0.17953995    0.12010000
opls_146-313    H    0.12803015    0.62603014    0.19291016    0.11760000
opls_146-314    H    0.48392003    0.45023954    0.13790019    0.11890000
opls_146-315    H    0.43403016    0.66623066    0.09081011    0.11930000
opls_146-316    H    0.00057013    0.41262952    0.12997001    0.11480000
opls_146-317    H    0.39338012    0.84751043    0.23825982    0.11810000
opls_146-318    H    0.68314008    0.63733010    0.37100009    0.11520000
opls_146-319    H    0.87410992    0.84563989    0.51915998    0.11880000
opls_146-320    H    0.78124994    0.00253936    0.38523002    0.11390000
opls_146-321    H    0.83995993    0.16480016    0.34817017    0.11520000
opls_146-322    H    0.93311994    0.01992060    0.48362017    0.11630000
opls_146-323    H    0.64290002    0.40048042    0.31890994    0.12010000
opls_146-324    H    0.66991002    0.03167945    0.44999011    0.11390000
opls_146-325    H    0.71092996    0.26949939    0.50162014    0.11320000
opls_144-326    H    0.95814994    0.22201992    0.41085988    0.11760000
opls_144-327    H    0.61666984    0.09470058    0.30758993    0.11490000
opls_185-328    H    0.68912996    0.97754003    0.13899017    0.07240000
opls_185-329    H    0.71051997    0.87934060    0.08270981    0.07280000
opls_185-330    H    0.66523995    0.04136994    0.07340993    0.08260000
opls_146-331    H    0.59279994    0.34264029    0.24340985    0.09480000
opls_146-332    H    0.94466014    0.13986947    0.28617006    0.11660000
opls_146-333    H    0.46379995    0.13610954    0.17953995    0.12010000
opls_146-334    H    0.62803015    0.12603014    0.19291016    0.11770000
opls_146-335    H    0.98392003    0.95023954    0.13790019    0.11890000
opls_146-336    H    0.93403016    0.16623066    0.09081011    0.11930000
opls_146-337    H    0.50057013    0.91262952    0.12997001    0.11490000
opls_146-338    H    0.89338012    0.34751043    0.23825982    0.11810000
opls_146-339    H    0.18314008    0.13733010    0.37100009    0.11520000
opls_146-340    H    0.37410992    0.34563989    0.51915998    0.11880000
opls_146-341    H    0.28124994    0.50253936    0.38523002    0.11390000
opls_146-342    H    0.33995993    0.66480016    0.34817017    0.11520000
opls_146-343    H    0.43311994    0.51992060    0.48362017    0.11630000
opls_146-344    H    0.14290002    0.90048042    0.31890994    0.12010000
opls_146-345    H    0.16991002    0.53167945    0.44999011    0.11390000
opls_146-346    H    0.21092996    0.76949939    0.50162014    0.11310000
opls_144-347    H    0.45814994    0.72201992    0.41085988    0.11760000
opls_144-348    H    0.11666984    0.59470058    0.30758993    0.11480000
opls_185-349    H    0.18912996    0.47754003    0.13899017    0.07230000
opls_185-350    H    0.21051997    0.37934060    0.08270981    0.07280000
opls_185-351    H    0.16523995    0.54136994    0.07340993    0.08260000
opls_146-352    H    0.09280011    0.15735971    0.74340985    0.09480000
opls_146-353    H    0.44465997    0.36013053    0.78617006    0.11660000
opls_146-354    H    0.96380012    0.36389046    0.67953995    0.12020000
opls_146-355    H    0.12802999    0.37396986    0.69291016    0.11760000
opls_146-356    H    0.48391986    0.54976046    0.63790019    0.11890000
opls_146-357    H    0.43402999    0.33376934    0.59081011    0.11930000
opls_146-358    H    0.00056996    0.58737048    0.62997001    0.11480000
opls_146-359    H    0.39338000    0.15248957    0.73826022    0.11810000
opls_146-360    H    0.68313991    0.36266990    0.87100009    0.11520000
opls_146-361    H    0.87411008    0.15436011    0.01915998    0.11880000
opls_146-362    H    0.78125010    0.99746064    0.88523002    0.11390000
opls_146-363    H    0.83996009    0.83519984    0.84817017    0.11520000
opls_146-364    H    0.93312010    0.98007940    0.98362017    0.11630000
opls_146-365    H    0.64289985    0.59951958    0.81890994    0.12010000
opls_146-366    H    0.66990985    0.96832055    0.94999011    0.11390000
opls_146-367    H    0.71092980    0.73050061    0.00162014    0.11310000
opls_144-368    H    0.95814978    0.77798008    0.91085988    0.11760000
opls_144-369    H    0.61667001    0.90529942    0.80758993    0.11480000
opls_185-370    H    0.68913012    0.02245997    0.63899017    0.07230000
opls_185-371    H    0.71051985    0.12065940    0.58271020    0.07280000
opls_185-372    H    0.66524012    0.95863006    0.57340993    0.08270000
opls_146-373    H    0.59280011    0.65735971    0.74340985    0.09480000
opls_146-374    H    0.94465997    0.86013053    0.78617006    0.11660000
opls_146-375    H    0.46380012    0.86389046    0.67953995    0.12010000
opls_146-376    H    0.62802999    0.87396986    0.69291016    0.11760000
opls_146-377    H    0.98391986    0.04976046    0.63790019    0.11890000
opls_146-378    H    0.93402999    0.83376934    0.59081011    0.11930000
opls_146-379    H    0.50056996    0.08737048    0.62997001    0.11480000
opls_146-380    H    0.89338000    0.65248957    0.73826022    0.11810000
opls_146-381    H    0.18313991    0.86266990    0.87100009    0.11520000
opls_146-382    H    0.37411008    0.65436011    0.01915998    0.11890000
opls_146-383    H    0.28125010    0.49746064    0.88523002    0.11390000
opls_146-384    H    0.33996009    0.33519984    0.84817017    0.11520000
opls_146-385    H    0.43312010    0.48007940    0.98362017    0.11630000
opls_146-386    H    0.14289985    0.09951958    0.81890994    0.12010000
opls_146-387    H    0.16990985    0.46832055    0.94999011    0.11390000
opls_146-388    H    0.21092980    0.23050061    0.00162014    0.11310000
opls_144-389    H    0.45814978    0.27798008    0.91085988    0.11760000
opls_144-390    H    0.11667001    0.40529942    0.80758993    0.11480000
opls_185-391    H    0.18913012    0.52245997    0.63899017    0.07230000
opls_185-392    H    0.21051985    0.62065940    0.58271020    0.07280000
opls_185-393    H    0.16524012    0.45863006    0.57340993    0.08260000
opls_146-394    H    0.90720006    0.15735971    0.75659015    0.09480000
opls_146-395    H    0.55533986    0.36013053    0.71382994    0.11660000
opls_146-396    H    0.03620005    0.36389046    0.82046005    0.12010000
opls_146-397    H    0.87196985    0.37396986    0.80708984    0.11760000
opls_146-398    H    0.51608001    0.54976046    0.86210021    0.11890000
opls_146-399    H    0.56596984    0.33376934    0.90918989    0.11940000
opls_146-400    H    0.99942987    0.58737048    0.87002999    0.12040000
opls_146-401    H    0.60661988    0.15248957    0.76174018    0.11810000
opls_146-402    H    0.31685992    0.36266990    0.62899991    0.11520000
opls_146-403    H    0.12589008    0.15436011    0.48084002    0.11880000
opls_146-404    H    0.21875006    0.99746064    0.61476998    0.11390000
opls_146-405    H    0.16004007    0.83519984    0.65182983    0.11520000
opls_146-406    H    0.06688006    0.98007940    0.51637983    0.11630000
opls_146-407    H    0.35709998    0.59951958    0.68109006    0.12020000
opls_146-408    H    0.33008998    0.96832055    0.55000989    0.11400000
opls_146-409    H    0.28907004    0.73050061    0.49837986    0.11310000
opls_144-410    H    0.04185006    0.77798008    0.58914012    0.11760000
opls_144-411    H    0.38332983    0.90529942    0.69241007    0.11480000
opls_185-412    H    0.31087008    0.02245997    0.86101022    0.07230000
opls_185-413    H    0.28948003    0.12065940    0.91729019    0.07280000
opls_185-414    H    0.33476005    0.95863006    0.92659007    0.08260000
opls_146-415    H    0.40720006    0.65735971    0.75659015    0.09480000
opls_146-416    H    0.05533986    0.86013053    0.71382994    0.11660000
opls_146-417    H    0.53620005    0.86389046    0.82046005    0.12010000
opls_146-418    H    0.37196985    0.87396986    0.80708984    0.11770000
opls_146-419    H    0.01608001    0.04976046    0.86210021    0.11890000
opls_146-420    H    0.06596984    0.83376934    0.90918989    0.11930000
opls_146-421    H    0.49942987    0.08737048    0.87002999    0.12040000
opls_146-422    H    0.10661988    0.65248957    0.76174018    0.11810000
opls_146-423    H    0.81685992    0.86266990    0.62899991    0.11520000
opls_146-424    H    0.62589008    0.65436011    0.48084002    0.11880000
opls_146-425    H    0.71875006    0.49746064    0.61476998    0.11400000
opls_146-426    H    0.66004007    0.33519984    0.65182983    0.11520000
opls_146-427    H    0.56688006    0.48007940    0.51637983    0.11630000
opls_146-428    H    0.85709998    0.09951958    0.68109006    0.12010000
opls_146-429    H    0.83008998    0.46832055    0.55000989    0.11390000
opls_146-430    H    0.78907004    0.23050061    0.49837986    0.11310000
opls_144-431    H    0.54185006    0.27798008    0.58914012    0.11760000
opls_144-432    H    0.88332983    0.40529942    0.69241007    0.11480000
opls_185-433    H    0.81087008    0.52245997    0.86101022    0.07230000
opls_185-434    H    0.78948003    0.62065940    0.91729019    0.07280000
opls_185-435    H    0.83476005    0.45863006    0.92659007    0.08260000
