#======================================================================
# Crystal Data Generated By AuToFF
#----------------------------------------------------------------------

data_AuToFF_phase_1

_cell_length_a                         37.4660
_cell_length_b                         37.4660
_cell_length_c                         4.4500
_cell_angle_alpha                      90.00
_cell_angle_beta                       90.00
_cell_angle_gamma                      120.00
_symmetry_space_group_name_H-M_alt     'P 1'
_symmetry_space_group_IT_number        1

loop_
_space_group_symop_operation_xyz
   'x, y, z'

loop_
   _atom_site_label
   _atom_site_type_symbol
   _atom_site_fract_x
   _atom_site_fract_y
   _atom_site_fract_z
   _atom_site_charge
opls_700-0    C    0.43964997    0.47826007    0.51133034    0.06630000
opls_700-1    C    0.52173994    0.96138999    0.51133034    0.06630000
opls_700-2    C    0.03861009    0.56034994    0.51133034    0.06620000
opls_700-3    C    0.56035003    0.52173993    0.51133034    0.06630000
opls_700-4    C    0.47826006    0.03861001    0.51133034    0.06630000
opls_700-5    C    0.96138991    0.43965006    0.51133034    0.06630000
opls_700-6    C    0.47826014    0.43965006    0.48866966    0.06630000
opls_700-7    C    0.96138991    0.52173993    0.48866966    0.06630000
opls_700-8    C    0.56034995    0.03861001    0.48866966    0.06620000
opls_700-9    C    0.52173986    0.56034994    0.48866966    0.06630000
opls_700-10    C    0.03861009    0.47826007    0.48866966    0.06630000
opls_700-11    C    0.43965005    0.96138999    0.48866966    0.06630000
opls_145-12    C    0.40762999    0.44693990    0.68204045    -0.13750000
opls_145-13    C    0.55306003    0.96069007    0.68204045    -0.13750000
opls_145-14    C    0.03930997    0.59235986    0.68204045    -0.13750000
opls_145-15    C    0.59236013    0.55306010    0.68204045    -0.13750000
opls_145-16    C    0.44693997    0.03930993    0.68204045    -0.13750000
opls_145-17    C    0.96069002    0.40762997    0.68204045    -0.13750000
opls_145-18    C    0.44693995    0.40762997    0.31795955    -0.13750000
opls_145-19    C    0.96069009    0.55306010    0.31795955    -0.13750000
opls_145-20    C    0.59236008    0.03930993    0.31795955    -0.13750000
opls_145-21    C    0.55306003    0.59235986    0.31795955    -0.13750000
opls_145-22    C    0.03930991    0.44693990    0.31795955    -0.13750000
opls_145-23    C    0.40763004    0.96069007    0.31795955    -0.13750000
opls_145-24    C    0.36925003    0.44399999    0.70560000    -0.05670000
opls_145-25    C    0.55600001    0.92524990    0.70560000    -0.05670000
opls_145-26    C    0.07474980    0.63074981    0.70560000    -0.05690000
opls_145-27    C    0.63074997    0.55600001    0.70560000    -0.03470000
opls_145-28    C    0.44399999    0.07475010    0.70560000    -0.05670000
opls_145-29    C    0.92525004    0.36924988    0.70560000    -0.05690000
opls_145-30    C    0.44399984    0.36924988    0.29440000    -0.05670000
opls_145-31    C    0.92525005    0.55600001    0.29440000    -0.05670000
opls_145-32    C    0.63075011    0.07475010    0.29440000    -0.05690000
opls_145-33    C    0.55600000    0.63074981    0.29440000    -0.03470000
opls_145-34    C    0.07474995    0.44399999    0.29440000    -0.05670000
opls_145-35    C    0.36924989    0.92524990    0.29440000    -0.05670000
opls_145-36    C    0.36245008    0.47302006    0.56070112    -0.26480000
opls_145-37    C    0.52698000    0.88943002    0.56070112    -0.26490000
opls_145-38    C    0.11056992    0.63754992    0.56070112    -0.26000000
opls_145-39    C    0.63754992    0.52697994    0.56070112    -0.26480000
opls_145-40    C    0.47302000    0.11056998    0.56070112    -0.26490000
opls_145-41    C    0.88942994    0.36245994    0.56070112    -0.26490000
opls_145-42    C    0.47301986    0.36245994    0.43929888    -0.26480000
opls_145-43    C    0.88943002    0.52697994    0.43929888    -0.26490000
opls_145-44    C    0.63754998    0.11056998    0.43929888    -0.26000000
opls_145-45    C    0.52698000    0.63754992    0.43929888    -0.26480000
opls_145-46    C    0.11056998    0.47302006    0.43929888    -0.26490000
opls_145-47    C    0.36245002    0.88943002    0.43929888    -0.26000000
opls_145-48    C    0.39277007    0.50267995    0.37480899    -0.03440000
opls_145-49    C    0.49732008    0.89010004    0.37480899    -0.03440000
opls_145-50    C    0.10989983    0.60722987    0.37480899    -0.03440000
opls_145-51    C    0.60722993    0.49732005    0.37480899    -0.03440000
opls_145-52    C    0.50267992    0.10989996    0.37480899    -0.03440000
opls_145-53    C    0.89010003    0.39277999    0.37480899    -0.03460000
opls_145-54    C    0.50267995    0.39276982    0.62519101    -0.03460000
opls_145-55    C    0.89010000    0.49732005    0.62519101    -0.03440000
opls_145-56    C    0.60722991    0.10989996    0.62519101    -0.03440000
opls_145-57    C    0.49731989    0.60722987    0.62519101    -0.03440000
opls_145-58    C    0.10990000    0.50267995    0.62519101    -0.03440000
opls_145-59    C    0.39277009    0.89010004    0.62519101    -0.03440000
opls_145-60    C    0.43014999    0.50379008    0.34200899    -0.19720000
opls_145-61    C    0.49620996    0.92636003    0.34200899    -0.19720000
opls_145-62    C    0.07364004    0.56984989    0.34200899    -0.19720000
opls_145-63    C    0.56985001    0.49620992    0.34200899    -0.19720000
opls_145-64    C    0.50379004    0.07363997    0.34200899    -0.19720000
opls_145-65    C    0.92635996    0.43015011    0.34200899    -0.19720000
opls_145-66    C    0.50379016    0.43015011    0.65799101    -0.19720000
opls_145-67    C    0.92635991    0.49620992    0.65799101    -0.19720000
opls_145-68    C    0.56984993    0.07363997    0.65799101    -0.19720000
opls_145-69    C    0.49620984    0.56984989    0.65799101    -0.19720000
opls_145-70    C    0.07364009    0.50379008    0.65799101    -0.19720000
opls_145-71    C    0.43015007    0.92636003    0.65799101    -0.19720000
opls_166-72    C    0.25641989    0.45078993    0.54762921    0.16690000
opls_166-73    C    0.54921010    0.80562994    0.54762921    0.16690000
opls_166-74    C    0.19436985    0.74357982    0.54762921    0.16690000
opls_166-75    C    0.74358011    0.54921007    0.54762921    0.16690000
opls_166-76    C    0.45078990    0.19437006    0.54762921    0.16690000
opls_166-77    C    0.80563000    0.25641987    0.54762921    0.16690000
opls_166-78    C    0.45078988    0.25641987    0.45237079    0.16690000
opls_166-79    C    0.80562996    0.54921007    0.45237079    0.16690000
opls_166-80    C    0.74358016    0.19437006    0.45237079    0.16690000
opls_166-81    C    0.54920997    0.74357982    0.45237079    0.16690000
opls_166-82    C    0.19437004    0.45078993    0.45237079    0.16690000
opls_166-83    C    0.25641984    0.80562994    0.45237079    0.16690000
opls_166-84    C    0.49362017    0.21580010    0.54140899    0.16580000
opls_166-85    C    0.78420014    0.27782002    0.54140899    0.16580000
opls_166-86    C    0.72217996    0.50637988    0.54140899    0.16580000
opls_166-87    C    0.50637983    0.78419990    0.54140899    0.16580000
opls_166-88    C    0.21579986    0.72217998    0.54140899    0.16580000
opls_166-89    C    0.27782004    0.49362012    0.54140899    0.16580000
opls_166-90    C    0.21580008    0.49362012    0.45859101    0.16580000
opls_166-91    C    0.27782007    0.78419990    0.45859101    0.16580000
opls_166-92    C    0.50638012    0.72217998    0.45859101    0.16580000
opls_166-93    C    0.78419992    0.50637988    0.45859101    0.16580000
opls_166-94    C    0.72217993    0.21580010    0.45859101    0.16580000
opls_166-95    C    0.49361988    0.27782002    0.45859101    0.16580000
opls_145-96    C    0.25810002    0.51620005    0.50000000    -0.31250000
opls_145-97    C    0.21406000    0.42812000    0.50000000    -0.32300000
opls_145-98    C    0.48379996    0.74189982    0.50000000    -0.31250000
opls_145-99    C    0.57187994    0.78594000    0.50000000    -0.32300000
opls_145-100    C    0.25809986    0.74189982    0.50000000    -0.31250000
opls_145-101    C    0.21406005    0.78594000    0.50000000    -0.32340000
opls_145-102    C    0.74189998    0.48379995    0.50000000    -0.31250000
opls_145-103    C    0.78594000    0.57188000    0.50000000    -0.32300000
opls_145-104    C    0.51619988    0.25809987    0.50000000    -0.31250000
opls_145-105    C    0.42812006    0.21406000    0.50000000    -0.32310000
opls_145-106    C    0.74189999    0.25809987    0.50000000    -0.31250000
opls_145-107    C    0.78593995    0.21406000    0.50000000    -0.32340000
opls_700-108    C    0.51867985    0.51867982    0.50000000    -0.06230000
opls_700-109    C    0.48132013    0.00000000    0.50000000    -0.06230000
opls_700-110    C    0.99999987    0.48131987    0.50000000    -0.06230000
opls_700-111    C    0.48132000    0.48131987    0.50000000    -0.06230000
opls_700-112    C    0.51867987    0.00000000    0.50000000    -0.06230000
opls_700-113    C    0.99999998    0.51867982    0.50000000    -0.06230000
MOF2_B_2-114    B    0.32151005    0.47257009    0.60057079    0.55040000
MOF2_B_2-115    B    0.52743001    0.84893999    0.60057079    0.55030000
MOF2_B_2-116    B    0.15105994    0.67848992    0.60057079    0.55030000
MOF2_B_2-117    B    0.67848995    0.52742991    0.60057079    0.55040000
MOF2_B_2-118    B    0.47256999    0.15106001    0.60057079    0.55040000
MOF2_B_2-119    B    0.84894006    0.32151008    0.60057079    0.55040000
MOF2_B_2-120    B    0.47257002    0.32151008    0.39942921    0.55040000
MOF2_B_2-121    B    0.84893996    0.52742991    0.39942921    0.55040000
MOF2_B_2-122    B    0.67849002    0.15106001    0.39942921    0.55040000
MOF2_B_2-123    B    0.52742998    0.67848992    0.39942921    0.55030000
MOF2_B_2-124    B    0.15106004    0.47257009    0.39942921    0.55020000
MOF2_B_2-125    B    0.32150998    0.84893999    0.39942921    0.55040000
opls_167-126    O    0.28170991    0.43441005    0.59028989    -0.36220000
opls_167-127    O    0.56558992    0.84730006    0.59028989    -0.36210000
opls_167-128    O    0.15269990    0.71828989    0.59028989    -0.36210000
opls_167-129    O    0.71829009    0.56558995    0.59028989    -0.36210000
opls_167-130    O    0.43441008    0.15269994    0.59028989    -0.36220000
opls_167-131    O    0.84730010    0.28171011    0.59028989    -0.36210000
opls_167-132    O    0.43441001    0.28171011    0.40971011    -0.36210000
opls_167-133    O    0.84729986    0.56558995    0.40971011    -0.36210000
opls_167-134    O    0.71828986    0.15269994    0.40971011    -0.36210000
opls_167-135    O    0.56558999    0.71828989    0.40971011    -0.36220000
opls_167-136    O    0.15270014    0.43441005    0.40971011    -0.36210000
opls_167-137    O    0.28171014    0.84730006    0.40971011    -0.36210000
opls_167-138    O    0.31958999    0.51035011    0.57000899    -0.36200000
opls_167-139    O    0.48964984    0.80923988    0.57000899    -0.36200000
opls_167-140    O    0.19075991    0.68041000    0.57000899    -0.36200000
opls_167-141    O    0.68041001    0.48964989    0.57000899    -0.36200000
opls_167-142    O    0.51035016    0.19076012    0.57000899    -0.36200000
opls_167-143    O    0.80924009    0.31959000    0.57000899    -0.36210000
opls_167-144    O    0.51034990    0.31959000    0.42999101    -0.36200000
opls_167-145    O    0.80923988    0.48964989    0.42999101    -0.36200000
opls_167-146    O    0.68040995    0.19076012    0.42999101    -0.36200000
opls_167-147    O    0.48965010    0.68041000    0.42999101    -0.36200000
opls_167-148    O    0.19076012    0.51035011    0.42999101    -0.36200000
opls_167-149    O    0.31959005    0.80923988    0.42999101    -0.36200000
opls_146-150    H    0.41177008    0.42357005    0.78617978    0.23930000
opls_146-151    H    0.57643009    0.98819996    0.78617978    0.23930000
opls_146-152    H    0.01180009    0.58822998    0.78617978    0.23930000
opls_146-153    H    0.58822992    0.57642995    0.78617978    0.23920000
opls_146-154    H    0.42356991    0.01180004    0.78617978    0.23930000
opls_146-155    H    0.98819991    0.41177002    0.78617978    0.23930000
opls_146-156    H    0.42357011    0.41177002    0.21382022    0.23930000
opls_146-157    H    0.98820003    0.57642995    0.21382022    0.23930000
opls_146-158    H    0.58823013    0.01180004    0.21382022    0.23930000
opls_146-159    H    0.57642989    0.58822998    0.21382022    0.23930000
opls_146-160    H    0.01179997    0.42357005    0.21382022    0.23930000
opls_146-161    H    0.41176987    0.98819996    0.21382022    0.23930000
opls_146-162    H    0.34529000    0.41974992    0.84122921    0.10860000
opls_146-163    H    0.58025007    0.92553991    0.84122921    0.10860000
opls_146-164    H    0.07446004    0.65470986    0.84122921    0.10860000
opls_146-165    H    0.65471000    0.58025008    0.84122921    0.10860000
opls_146-166    H    0.41974993    0.07446009    0.84122921    0.10860000
opls_146-167    H    0.92553981    0.34528983    0.84122921    0.10860000
opls_146-168    H    0.41975002    0.34528983    0.15877079    0.10860000
opls_146-169    H    0.92554008    0.58025008    0.15877079    0.10860000
opls_146-170    H    0.65471016    0.07446009    0.15877079    0.10860000
opls_146-171    H    0.58024982    0.65470986    0.15877079    0.10860000
opls_146-172    H    0.07445992    0.41974992    0.15877079    0.10860000
opls_146-173    H    0.34528984    0.92553991    0.15877079    0.10860000
opls_146-174    H    0.38754004    0.52491994    0.25489888    0.10780000
opls_146-175    H    0.47508011    0.86262005    0.25489888    0.10770000
opls_146-176    H    0.13738012    0.61246001    0.25489888    0.10830000
opls_146-177    H    0.61245996    0.47508006    0.25489888    0.10780000
opls_146-178    H    0.52491989    0.13737995    0.25489888    0.10770000
opls_146-179    H    0.86261988    0.38753999    0.25489888    0.10770000
opls_146-180    H    0.52492010    0.38753999    0.74509888    0.10780000
opls_146-181    H    0.86262010    0.47508006    0.74509888    0.10770000
opls_146-182    H    0.61246006    0.13737995    0.74509888    0.10830000
opls_146-183    H    0.47507990    0.61246001    0.74509888    0.10770000
opls_146-184    H    0.13737990    0.52491994    0.74509888    0.10770000
opls_146-185    H    0.38753994    0.86262005    0.74509888    0.10830000
opls_146-186    H    0.45299996    0.52706008    0.20628090    0.23850000
opls_146-187    H    0.47294008    0.92593995    0.20628090    0.23850000
opls_146-188    H    0.07405996    0.54699997    0.20628090    0.23850000
opls_146-189    H    0.54700004    0.47293992    0.20628090    0.23850000
opls_146-190    H    0.52705992    0.07406005    0.20628090    0.23850000
opls_146-191    H    0.92594004    0.45300003    0.20628090    0.23850000
opls_146-192    H    0.52705999    0.45300003    0.79371910    0.23850000
opls_146-193    H    0.92593988    0.47293992    0.79371910    0.23850000
opls_146-194    H    0.54700013    0.07406005    0.79371910    0.23850000
opls_146-195    H    0.47294001    0.54699997    0.79371910    0.23850000
opls_146-196    H    0.07406012    0.52706008    0.79371910    0.23850000
opls_146-197    H    0.45299987    0.92593995    0.79371910    0.23840000
opls_146-198    H    0.27473001    0.54946002    0.50000000    0.11650000
opls_146-199    H    0.19742988    0.39486990    0.50000000    0.11290000
opls_146-200    H    0.45054003    0.72526999    0.50000000    0.11650000
opls_146-201    H    0.60513000    0.80256983    0.50000000    0.11290000
opls_146-202    H    0.27472996    0.72526999    0.50000000    0.11650000
opls_146-203    H    0.19742995    0.80256983    0.50000000    0.11650000
opls_146-204    H    0.72526999    0.45053998    0.50000000    0.11650000
opls_146-205    H    0.80257012    0.60513010    0.50000000    0.11290000
opls_146-206    H    0.54945997    0.27473001    0.50000000    0.11650000
opls_146-207    H    0.39486984    0.19742986    0.50000000    0.11370000
opls_146-208    H    0.72527004    0.27473001    0.50000000    0.11650000
opls_146-209    H    0.80256989    0.19742986    0.50000000    0.11650000
