#======================================================================
# Crystal Data Generated By AuToFF
#----------------------------------------------------------------------

data_AuToFF_phase_1

_cell_length_a                         29.6352
_cell_length_b                         29.6352
_cell_length_c                         11.7447
_cell_angle_alpha                      90.00
_cell_angle_beta                       90.00
_cell_angle_gamma                      90.00
_symmetry_space_group_name_H-M_alt     'P 1'
_symmetry_space_group_IT_number        1

loop_
_space_group_symop_operation_xyz
   'x, y, z'

loop_
   _atom_site_label
   _atom_site_type_symbol
   _atom_site_fract_x
   _atom_site_fract_y
   _atom_site_fract_z
   _atom_site_charge
opls_145-0    C    0.94137006    0.46325012    0.88606010    -0.12910000
opls_145-1    C    0.19364000    0.46744986    0.30777031    -0.16960000
opls_142-2    C    0.12797012    0.48210000    0.12331009    0.07200000
opls_700-3    C    0.09971993    0.48954993    0.02160975    0.05530000
opls_145-4    C    0.08227007    0.45132005    0.96824014    -0.13170000
opls_145-5    C    0.05242988    0.45541991    0.87821996    -0.11480000
opls_700-6    C    0.04034999    0.49801014    0.83327033    0.04670000
opls_145-7    C    0.21832011    0.46158993    0.40805981    -0.15750000
opls_145-8    C    0.22023000    0.49587990    0.48920960    0.15460000
opls_145-9    C    0.17152002    0.54214988    0.36962971    -0.16300000
opls_145-10    C    0.16941003    0.50774991    0.28818020    0.19590000
opls_145-11    C    0.08811009    0.53252011    0.97972958    -0.12150000
opls_145-12    C    0.19670999    0.53636014    0.46971996    -0.17120000
opls_142-13    C    0.47290992    0.36547012    0.85677029    0.07180000
opls_700-14    C    0.48165999    0.39645017    0.76103008    0.05450000
opls_145-15    C    0.44661011    0.40593990    0.68471992    -0.11620000
opls_145-16    C    0.45248016    0.43735996    0.59747035    -0.12670000
opls_700-17    C    0.49423996    0.45947994    0.58199017    0.04670000
opls_145-18    C    0.44888983    0.47037003    0.34161026    -0.12410000
opls_145-19    C    0.41785984    0.47657009    0.25329042    -0.11600000
opls_145-20    C    0.45497989    0.30950997    0.06210972    -0.16200000
opls_145-21    C    0.45077003    0.28307992    0.16002026    -0.15690000
opls_145-22    C    0.48652008    0.27918016    0.23652967    0.17440000
opls_145-23    C    0.53137991    0.32879987    0.11630012    -0.16700000
opls_145-24    C    0.49562986    0.33249008    0.03872981    0.19600000
opls_145-25    C    0.52701011    0.30228984    0.21467981    -0.17140000
opls_145-26    C    0.05862994    0.53674988    0.88606010    -0.12910000
opls_145-27    C    0.80636000    0.53255014    0.30777031    -0.16950000
opls_142-28    C    0.87202988    0.51790000    0.12331009    0.07200000
opls_700-29    C    0.90028007    0.51045007    0.02160975    0.05530000
opls_145-30    C    0.91772993    0.54867995    0.96824014    -0.13170000
opls_145-31    C    0.94757012    0.54458009    0.87821996    -0.11480000
opls_700-32    C    0.95965001    0.50198986    0.83327033    0.04670000
opls_145-33    C    0.78167989    0.53841007    0.40805981    -0.15750000
opls_145-34    C    0.77977000    0.50412010    0.48920960    0.15450000
opls_145-35    C    0.82847998    0.45785012    0.36962971    -0.16300000
opls_145-36    C    0.83058997    0.49225009    0.28818020    0.19590000
opls_145-37    C    0.91188991    0.46747989    0.97972958    -0.12150000
opls_145-38    C    0.80329001    0.46363986    0.46971996    -0.17120000
opls_142-39    C    0.52709008    0.63452988    0.85677029    0.07180000
opls_700-40    C    0.51834001    0.60354983    0.76103008    0.05450000
opls_145-41    C    0.55338989    0.59406010    0.68471992    -0.11620000
opls_145-42    C    0.54751984    0.56264004    0.59747035    -0.12670000
opls_700-43    C    0.50576004    0.54052006    0.58199017    0.04670000
opls_145-44    C    0.55111017    0.52962997    0.34161026    -0.12410000
opls_145-45    C    0.58214016    0.52342991    0.25329042    -0.11600000
opls_145-46    C    0.54502011    0.69049003    0.06210972    -0.16200000
opls_145-47    C    0.54922997    0.71692008    0.16002026    -0.15690000
opls_145-48    C    0.51347992    0.72081984    0.23652967    0.17450000
opls_145-49    C    0.46862009    0.67120013    0.11630012    -0.16700000
opls_145-50    C    0.50437014    0.66750992    0.03872981    0.19590000
opls_145-51    C    0.47298989    0.69771016    0.21467981    -0.17130000
opls_145-52    C    0.46325012    0.05862994    0.11393990    -0.12910000
opls_145-53    C    0.46744986    0.80636000    0.69222969    -0.16960000
opls_142-54    C    0.48210000    0.87202988    0.87668991    0.07200000
opls_700-55    C    0.48954993    0.90028007    0.97839025    0.05530000
opls_145-56    C    0.45132005    0.91772993    0.03175986    -0.13170000
opls_145-57    C    0.45541991    0.94757012    0.12178004    -0.11470000
opls_700-58    C    0.49801014    0.95965001    0.16672967    0.04670000
opls_145-59    C    0.46158993    0.78167989    0.59194019    -0.15750000
opls_145-60    C    0.49587990    0.77977000    0.51079040    0.15450000
opls_145-61    C    0.54214988    0.82847998    0.63037029    -0.16310000
opls_145-62    C    0.50774991    0.83058997    0.71181980    0.19590000
opls_145-63    C    0.53252011    0.91188991    0.02027042    -0.12150000
opls_145-64    C    0.53636014    0.80329001    0.53028004    -0.17120000
opls_142-65    C    0.36547012    0.52709008    0.14322971    0.07180000
opls_700-66    C    0.39645017    0.51834001    0.23896992    0.05450000
opls_145-67    C    0.40593990    0.55338989    0.31528008    -0.11620000
opls_145-68    C    0.43735996    0.54751984    0.40252965    -0.12670000
opls_700-69    C    0.45947994    0.50576004    0.41800983    0.04670000
opls_145-70    C    0.47037003    0.55111017    0.65838974    -0.12410000
opls_145-71    C    0.47657009    0.58214016    0.74670958    -0.11600000
opls_145-72    C    0.30950997    0.54502011    0.93789028    -0.16200000
opls_145-73    C    0.28307992    0.54922997    0.83997974    -0.15690000
opls_145-74    C    0.27918016    0.51347992    0.76347033    0.17440000
opls_145-75    C    0.32879987    0.46862009    0.88369988    -0.16700000
opls_145-76    C    0.33249008    0.50437014    0.96127019    0.19590000
opls_145-77    C    0.30228984    0.47298989    0.78532019    -0.17140000
opls_145-78    C    0.53674988    0.94137006    0.11393990    -0.12910000
opls_145-79    C    0.53255014    0.19364000    0.69222969    -0.16960000
opls_142-80    C    0.51790000    0.12797012    0.87668991    0.07200000
opls_700-81    C    0.51045007    0.09971993    0.97839025    0.05530000
opls_145-82    C    0.54867995    0.08227007    0.03175986    -0.13170000
opls_145-83    C    0.54458009    0.05242988    0.12178004    -0.11480000
opls_700-84    C    0.50198986    0.04034999    0.16672967    0.04670000
opls_145-85    C    0.53841007    0.21832011    0.59194019    -0.15740000
opls_145-86    C    0.50412010    0.22023000    0.51079040    0.15450000
opls_145-87    C    0.45785012    0.17152002    0.63037029    -0.16310000
opls_145-88    C    0.49225009    0.16941003    0.71181980    0.19590000
opls_145-89    C    0.46747989    0.08811009    0.02027042    -0.12150000
opls_145-90    C    0.46363986    0.19670999    0.53028004    -0.17120000
opls_142-91    C    0.63452988    0.47290992    0.14322971    0.07180000
opls_700-92    C    0.60354983    0.48165999    0.23896992    0.05450000
opls_145-93    C    0.59406010    0.44661011    0.31528008    -0.11620000
opls_145-94    C    0.56264004    0.45248016    0.40252965    -0.12670000
opls_700-95    C    0.54052006    0.49423996    0.41800983    0.04670000
opls_145-96    C    0.52962997    0.44888983    0.65838974    -0.12410000
opls_145-97    C    0.52342991    0.41785984    0.74670958    -0.11600000
opls_145-98    C    0.69049003    0.45497989    0.93789028    -0.16200000
opls_145-99    C    0.71692008    0.45077003    0.83997974    -0.15690000
opls_145-100    C    0.72081984    0.48652008    0.76347033    0.17440000
opls_145-101    C    0.67120013    0.53137991    0.88369988    -0.16700000
opls_145-102    C    0.66750992    0.49562986    0.96127019    0.19590000
opls_145-103    C    0.69771016    0.52701011    0.78532019    -0.17140000
opls_145-104    C    0.44137006    0.03674988    0.38606010    -0.12910000
opls_145-105    C    0.69364000    0.03255014    0.80777031    -0.16950000
opls_142-106    C    0.62797012    0.01790000    0.62331009    0.07200000
opls_700-107    C    0.59971993    0.01045007    0.52160975    0.05530000
opls_145-108    C    0.58227007    0.04867995    0.46824014    -0.13170000
opls_145-109    C    0.55242988    0.04458009    0.37821996    -0.11480000
opls_700-110    C    0.54034999    0.00198986    0.33327033    0.04670000
opls_145-111    C    0.71832011    0.03841007    0.90805981    -0.15750000
opls_145-112    C    0.72023000    0.00412010    0.98920960    0.15450000
opls_145-113    C    0.67152002    0.95785012    0.86962971    -0.16310000
opls_145-114    C    0.66941003    0.99225009    0.78818020    0.19590000
opls_145-115    C    0.58811009    0.96747989    0.47972958    -0.12150000
opls_145-116    C    0.69670999    0.96363986    0.96971996    -0.17120000
opls_142-117    C    0.97290992    0.13452988    0.35677029    0.07180000
opls_700-118    C    0.98165999    0.10354983    0.26103008    0.05450000
opls_145-119    C    0.94661011    0.09406010    0.18471992    -0.11620000
opls_145-120    C    0.95248016    0.06264004    0.09747035    -0.12670000
opls_700-121    C    0.99423996    0.04052006    0.08199017    0.04670000
opls_145-122    C    0.94888983    0.02962997    0.84161026    -0.12410000
opls_145-123    C    0.91785984    0.02342991    0.75329042    -0.11600000
opls_145-124    C    0.95497989    0.19049003    0.56210972    -0.16200000
opls_145-125    C    0.95077003    0.21692008    0.66002026    -0.15690000
opls_145-126    C    0.98652008    0.22081984    0.73652967    0.17450000
opls_145-127    C    0.03137991    0.17120013    0.61630012    -0.16700000
opls_145-128    C    0.99562986    0.16750992    0.53872981    0.19590000
opls_145-129    C    0.02701011    0.19771016    0.71467981    -0.17140000
opls_145-130    C    0.55862994    0.96325012    0.38606010    -0.12910000
opls_145-131    C    0.30636000    0.96744986    0.80777031    -0.16960000
opls_142-132    C    0.37202988    0.98210000    0.62331009    0.07200000
opls_700-133    C    0.40028007    0.98954993    0.52160975    0.05530000
opls_145-134    C    0.41772993    0.95132005    0.46824014    -0.13170000
opls_145-135    C    0.44757012    0.95541991    0.37821996    -0.11480000
opls_700-136    C    0.45965001    0.99801014    0.33327033    0.04670000
opls_145-137    C    0.28167989    0.96158993    0.90805981    -0.15750000
opls_145-138    C    0.27977000    0.99587990    0.98920960    0.15450000
opls_145-139    C    0.32847998    0.04214988    0.86962971    -0.16310000
opls_145-140    C    0.33058997    0.00774991    0.78818020    0.19590000
opls_145-141    C    0.41188991    0.03252011    0.47972958    -0.12150000
opls_145-142    C    0.30329001    0.03636014    0.96971996    -0.17110000
opls_142-143    C    0.02709008    0.86547012    0.35677029    0.07180000
opls_700-144    C    0.01834001    0.89645017    0.26103008    0.05450000
opls_145-145    C    0.05338989    0.90593990    0.18471992    -0.11610000
opls_145-146    C    0.04751984    0.93735996    0.09747035    -0.12670000
opls_700-147    C    0.00576004    0.95947994    0.08199017    0.04670000
opls_145-148    C    0.05111017    0.97037003    0.84161026    -0.12410000
opls_145-149    C    0.08214016    0.97657009    0.75329042    -0.11600000
opls_145-150    C    0.04502011    0.80950997    0.56210972    -0.16200000
opls_145-151    C    0.04922997    0.78307992    0.66002026    -0.15690000
opls_145-152    C    0.01347992    0.77918016    0.73652967    0.17440000
opls_145-153    C    0.96862009    0.82879987    0.61630012    -0.16690000
opls_145-154    C    0.00437014    0.83249008    0.53872981    0.19590000
opls_145-155    C    0.97298989    0.80228984    0.71467981    -0.17140000
opls_145-156    C    0.96325012    0.44137006    0.61393990    -0.12910000
opls_145-157    C    0.96744986    0.69364000    0.19222969    -0.16960000
opls_142-158    C    0.98210000    0.62797012    0.37668991    0.07200000
opls_700-159    C    0.98954993    0.59971993    0.47839025    0.05530000
opls_145-160    C    0.95132005    0.58227007    0.53175986    -0.13170000
opls_145-161    C    0.95541991    0.55242988    0.62178004    -0.11480000
opls_700-162    C    0.99801014    0.54034999    0.66672967    0.04670000
opls_145-163    C    0.96158993    0.71832011    0.09194019    -0.15750000
opls_145-164    C    0.99587990    0.72023000    0.01079040    0.15450000
opls_145-165    C    0.04214988    0.67152002    0.13037029    -0.16300000
opls_145-166    C    0.00774991    0.66941003    0.21181980    0.19590000
opls_145-167    C    0.03252011    0.58811009    0.52027042    -0.12150000
opls_145-168    C    0.03636014    0.69670999    0.03028004    -0.17110000
opls_142-169    C    0.86547012    0.97290992    0.64322971    0.07180000
opls_700-170    C    0.89645017    0.98165999    0.73896992    0.05450000
opls_145-171    C    0.90593990    0.94661011    0.81528008    -0.11620000
opls_145-172    C    0.93735996    0.95248016    0.90252965    -0.12670000
opls_700-173    C    0.95947994    0.99423996    0.91800983    0.04670000
opls_145-174    C    0.97037003    0.94888983    0.15838974    -0.12410000
opls_145-175    C    0.97657009    0.91785984    0.24670958    -0.11580000
opls_145-176    C    0.80950997    0.95497989    0.43789028    -0.16200000
opls_145-177    C    0.78307992    0.95077003    0.33997974    -0.15690000
opls_145-178    C    0.77918016    0.98652008    0.26347033    0.17440000
opls_145-179    C    0.82879987    0.03137991    0.38369988    -0.16700000
opls_145-180    C    0.83249008    0.99562986    0.46127019    0.19590000
opls_145-181    C    0.80228984    0.02701011    0.28532019    -0.17130000
opls_145-182    C    0.03674988    0.55862994    0.61393990    -0.12910000
opls_145-183    C    0.03255014    0.30636000    0.19222969    -0.16950000
opls_142-184    C    0.01790000    0.37202988    0.37668991    0.07200000
opls_700-185    C    0.01045007    0.40028007    0.47839025    0.05530000
opls_145-186    C    0.04867995    0.41772993    0.53175986    -0.13170000
opls_145-187    C    0.04458009    0.44757012    0.62178004    -0.11480000
opls_700-188    C    0.00198986    0.45965001    0.66672967    0.04670000
opls_145-189    C    0.03841007    0.28167989    0.09194019    -0.15750000
opls_145-190    C    0.00412010    0.27977000    0.01079040    0.15450000
opls_145-191    C    0.95785012    0.32847998    0.13037029    -0.16310000
opls_145-192    C    0.99225009    0.33058997    0.21181980    0.19590000
opls_145-193    C    0.96747989    0.41188991    0.52027042    -0.12150000
opls_145-194    C    0.96363986    0.30329001    0.03028004    -0.17120000
opls_142-195    C    0.13452988    0.02709008    0.64322971    0.07180000
opls_700-196    C    0.10354983    0.01834001    0.73896992    0.05450000
opls_145-197    C    0.09406010    0.05338989    0.81528008    -0.11620000
opls_145-198    C    0.06264004    0.04751984    0.90252965    -0.12670000
opls_700-199    C    0.04052006    0.00576004    0.91800983    0.04670000
opls_145-200    C    0.02962997    0.05111017    0.15838974    -0.12410000
opls_145-201    C    0.02342991    0.08214016    0.24670958    -0.11600000
opls_145-202    C    0.19049003    0.04502011    0.43789028    -0.16200000
opls_145-203    C    0.21692008    0.04922997    0.33997974    -0.15690000
opls_145-204    C    0.22081984    0.01347992    0.26347033    0.17440000
opls_145-205    C    0.17120013    0.96862009    0.38369988    -0.16700000
opls_145-206    C    0.16750992    0.00437014    0.46127019    0.19590000
opls_145-207    C    0.19771016    0.97298989    0.28532019    -0.17130000
opls_701-208    C    0.50000000    0.00000000    0.24999957    0.00970000
opls_701-209    C    0.00000000    0.50000000    0.74999957    0.00970000
opls_701-210    C    0.50000000    0.50000000    0.50000000    0.00260000
opls_701-211    C    0.00000000    0.00000000    0.00000000    0.00260000
opls_146-212    H    0.19456997    0.44066009    0.24560014    0.12730000
opls_144-213    H    0.13386986    0.44737002    0.14721023    0.12510000
opls_146-214    H    0.09017992    0.41783015    0.99954022    0.11920000
opls_146-215    H    0.03732015    0.42466999    0.84627023    0.12120000
opls_146-216    H    0.23666012    0.43052012    0.42242033    0.12110000
opls_146-217    H    0.15329001    0.57328009    0.35524024    0.12110000
opls_146-218    H    0.04834994    0.57007984    0.85878992    0.12080000
opls_146-219    H    0.10074000    0.56251012    0.02168978    0.12100000
opls_146-220    H    0.19809011    0.56325012    0.53191993    0.12070000
opls_144-221    H    0.44090001    0.34817987    0.85694994    0.10300000
opls_146-222    H    0.41388012    0.39022008    0.69536983    0.11630000
opls_146-223    H    0.42331012    0.44559004    0.54639965    0.12330000
opls_146-224    H    0.46624015    0.43828015    0.34811021    0.12250000
opls_146-225    H    0.41136014    0.44916991    0.19442983    0.11780000
opls_146-226    H    0.42610004    0.31169015    0.00676986    0.10320000
opls_146-227    H    0.41945997    0.26557000    0.17718971    0.12080000
opls_146-228    H    0.56259988    0.34663002    0.09989016    0.11930000
opls_146-229    H    0.55489992    0.29970002    0.27380010    0.12390000
opls_146-230    H    0.80543003    0.55933991    0.24560014    0.12730000
opls_144-231    H    0.86613014    0.55262998    0.14721023    0.12530000
opls_146-232    H    0.90982008    0.58216985    0.99954022    0.11910000
opls_146-233    H    0.96267985    0.57533001    0.84627023    0.12120000
opls_146-234    H    0.76333988    0.56947988    0.42242033    0.12110000
opls_146-235    H    0.84670999    0.42671991    0.35524024    0.12110000
opls_146-236    H    0.95165006    0.42992016    0.85878992    0.12080000
opls_146-237    H    0.89926000    0.43748988    0.02168978    0.12100000
opls_146-238    H    0.80190989    0.43674988    0.53191993    0.12070000
opls_144-239    H    0.55909999    0.65182013    0.85694994    0.10290000
opls_146-240    H    0.58611988    0.60977992    0.69536983    0.11620000
opls_146-241    H    0.57668988    0.55440996    0.54639965    0.12330000
opls_146-242    H    0.53375985    0.56171985    0.34811021    0.12250000
opls_146-243    H    0.58863986    0.55083009    0.19442983    0.11780000
opls_146-244    H    0.57389996    0.68830985    0.00676986    0.10320000
opls_146-245    H    0.58054003    0.73443000    0.17718971    0.12080000
opls_146-246    H    0.43740012    0.65336998    0.09989016    0.11940000
opls_146-247    H    0.44510008    0.70029998    0.27380010    0.12390000
opls_146-248    H    0.44066009    0.80543003    0.75439986    0.12730000
opls_144-249    H    0.44737002    0.86613014    0.85278977    0.12510000
opls_146-250    H    0.41783015    0.90982008    0.00045978    0.11920000
opls_146-251    H    0.42466999    0.96267985    0.15372977    0.12120000
opls_146-252    H    0.43052012    0.76333988    0.57757967    0.12130000
opls_146-253    H    0.57328009    0.84670999    0.64475976    0.12110000
opls_146-254    H    0.57007984    0.95165006    0.14121008    0.12080000
opls_146-255    H    0.56251012    0.89926000    0.97831022    0.12100000
opls_146-256    H    0.56325012    0.80190989    0.46808007    0.12070000
opls_144-257    H    0.34817987    0.55909999    0.14305006    0.10290000
opls_146-258    H    0.39022008    0.58611988    0.30463017    0.11620000
opls_146-259    H    0.44559004    0.57668988    0.45360035    0.12330000
opls_146-260    H    0.43828015    0.53375985    0.65188979    0.12250000
opls_146-261    H    0.44916991    0.58863986    0.80557017    0.11780000
opls_146-262    H    0.31169015    0.57389996    0.99323014    0.10330000
opls_146-263    H    0.26557000    0.58054003    0.82281029    0.12080000
opls_146-264    H    0.34663002    0.43740012    0.90010984    0.11940000
opls_146-265    H    0.29970002    0.44510008    0.72619990    0.12390000
opls_146-266    H    0.55933991    0.19456997    0.75439986    0.12730000
opls_144-267    H    0.55262998    0.13386986    0.85278977    0.12510000
opls_146-268    H    0.58216985    0.09017992    0.00045978    0.11910000
opls_146-269    H    0.57533001    0.03732015    0.15372977    0.12120000
opls_146-270    H    0.56947988    0.23666012    0.57757967    0.12110000
opls_146-271    H    0.42671991    0.15329001    0.64475976    0.12110000
opls_146-272    H    0.42992016    0.04834994    0.14121008    0.12080000
opls_146-273    H    0.43748988    0.10074000    0.97831022    0.12110000
opls_146-274    H    0.43674988    0.19809011    0.46808007    0.12070000
opls_144-275    H    0.65182013    0.44090001    0.14305006    0.10300000
opls_146-276    H    0.60977992    0.41388012    0.30463017    0.11620000
opls_146-277    H    0.55440996    0.42331012    0.45360035    0.12330000
opls_146-278    H    0.56171985    0.46624015    0.65188979    0.12250000
opls_146-279    H    0.55083009    0.41136014    0.80557017    0.11780000
opls_146-280    H    0.68830985    0.42610004    0.99323014    0.10330000
opls_146-281    H    0.73443000    0.41945997    0.82281029    0.12080000
opls_146-282    H    0.65336998    0.56259988    0.90010984    0.11930000
opls_146-283    H    0.70029998    0.55489992    0.72619990    0.12390000
opls_146-284    H    0.69456997    0.05933991    0.74560014    0.12730000
opls_144-285    H    0.63386986    0.05262998    0.64721023    0.12510000
opls_146-286    H    0.59017992    0.08216985    0.49954022    0.11910000
opls_146-287    H    0.53732015    0.07533001    0.34627023    0.12130000
opls_146-288    H    0.73666012    0.06947988    0.92242033    0.12110000
opls_146-289    H    0.65329001    0.92671991    0.85524024    0.12110000
opls_146-290    H    0.54834994    0.92992016    0.35878992    0.12080000
opls_146-291    H    0.60074000    0.93748988    0.52168978    0.12100000
opls_146-292    H    0.69809011    0.93674988    0.03191993    0.12070000
opls_144-293    H    0.94090001    0.15182013    0.35694994    0.10290000
opls_146-294    H    0.91388012    0.10977992    0.19536983    0.11630000
opls_146-295    H    0.92331012    0.05440996    0.04639965    0.12330000
opls_146-296    H    0.96624015    0.06171985    0.84811021    0.12250000
opls_146-297    H    0.91136014    0.05083009    0.69442983    0.11780000
opls_146-298    H    0.92610004    0.18830985    0.50676986    0.10320000
opls_146-299    H    0.91945997    0.23443000    0.67718971    0.12080000
opls_146-300    H    0.06259988    0.15336998    0.59989016    0.11930000
opls_146-301    H    0.05489992    0.20029998    0.77380010    0.12390000
opls_146-302    H    0.30543003    0.94066009    0.74560014    0.12730000
opls_144-303    H    0.36613014    0.94737002    0.64721023    0.12510000
opls_146-304    H    0.40982008    0.91783015    0.49954022    0.11910000
opls_146-305    H    0.46267985    0.92466999    0.34627023    0.12120000
opls_146-306    H    0.26333988    0.93052012    0.92242033    0.12110000
opls_146-307    H    0.34670999    0.07328009    0.85524024    0.12110000
opls_146-308    H    0.45165006    0.07007984    0.35878992    0.12080000
opls_146-309    H    0.39926000    0.06251012    0.52168978    0.12100000
opls_146-310    H    0.30190989    0.06325012    0.03191993    0.12070000
opls_144-311    H    0.05909999    0.84817987    0.35694994    0.10290000
opls_146-312    H    0.08611988    0.89022008    0.19536983    0.11620000
opls_146-313    H    0.07668988    0.94559004    0.04639965    0.12330000
opls_146-314    H    0.03375985    0.93828015    0.84811021    0.12250000
opls_146-315    H    0.08863986    0.94916991    0.69442983    0.11780000
opls_146-316    H    0.07389996    0.81169015    0.50676986    0.10320000
opls_146-317    H    0.08054003    0.76557000    0.67718971    0.12080000
opls_146-318    H    0.93740012    0.84663002    0.59989016    0.11930000
opls_146-319    H    0.94510008    0.79970002    0.77380010    0.12390000
opls_146-320    H    0.94066009    0.69456997    0.25439986    0.12740000
opls_144-321    H    0.94737002    0.63386986    0.35278977    0.12520000
opls_146-322    H    0.91783015    0.59017992    0.50045978    0.11920000
opls_146-323    H    0.92466999    0.53732015    0.65372977    0.12120000
opls_146-324    H    0.93052012    0.73666012    0.07757967    0.12110000
opls_146-325    H    0.07328009    0.65329001    0.14475976    0.12110000
opls_146-326    H    0.07007984    0.54834994    0.64121008    0.12080000
opls_146-327    H    0.06251012    0.60074000    0.47831022    0.12110000
opls_146-328    H    0.06325012    0.69809011    0.96808007    0.12070000
opls_144-329    H    0.84817987    0.94090001    0.64305006    0.10290000
opls_146-330    H    0.89022008    0.91388012    0.80463017    0.11630000
opls_146-331    H    0.94559004    0.92331012    0.95360035    0.12330000
opls_146-332    H    0.93828015    0.96624015    0.15188979    0.12250000
opls_146-333    H    0.94916991    0.91136014    0.30557017    0.11780000
opls_146-334    H    0.81169015    0.92610004    0.49323014    0.10320000
opls_146-335    H    0.76557000    0.91945997    0.32281029    0.12080000
opls_146-336    H    0.84663002    0.06259988    0.40010984    0.11930000
opls_146-337    H    0.79970002    0.05489992    0.22619990    0.12390000
opls_146-338    H    0.05933991    0.30543003    0.25439986    0.12730000
opls_144-339    H    0.05262998    0.36613014    0.35278977    0.12510000
opls_146-340    H    0.08216985    0.40982008    0.50045978    0.11910000
opls_146-341    H    0.07533001    0.46267985    0.65372977    0.12120000
opls_146-342    H    0.06947988    0.26333988    0.07757967    0.12110000
opls_146-343    H    0.92671991    0.34670999    0.14475976    0.12110000
opls_146-344    H    0.92992016    0.45165006    0.64121008    0.12080000
opls_146-345    H    0.93748988    0.39926000    0.47831022    0.12110000
opls_146-346    H    0.93674988    0.30190989    0.96808007    0.12070000
opls_144-347    H    0.15182013    0.05909999    0.64305006    0.10290000
opls_146-348    H    0.10977992    0.08611988    0.80463017    0.11620000
opls_146-349    H    0.05440996    0.07668988    0.95360035    0.12330000
opls_146-350    H    0.06171985    0.03375985    0.15188979    0.12250000
opls_146-351    H    0.05083009    0.08863986    0.30557017    0.11780000
opls_146-352    H    0.18830985    0.07389996    0.49323014    0.10320000
opls_146-353    H    0.23443000    0.08054003    0.32281029    0.12080000
opls_146-354    H    0.15336998    0.93740012    0.40010984    0.11930000
opls_146-355    H    0.20029998    0.94510008    0.22619990    0.12390000
opls_750-356    N    0.14272993    0.51475003    0.18713973    -0.33130000
opls_750-357    N    0.24707004    0.48904006    0.58909040    -0.13200000
opls_750-358    N    0.50176007    0.36029991    0.93935988    -0.32450000
opls_750-359    N    0.48033993    0.25198986    0.33600007    -0.13200000
opls_750-360    N    0.85727007    0.48524997    0.18713973    -0.33130000
opls_750-361    N    0.75292996    0.51095994    0.58909040    -0.13200000
opls_750-362    N    0.49823993    0.63970009    0.93935988    -0.32460000
opls_750-363    N    0.51966007    0.74801014    0.33600007    -0.13190000
opls_750-364    N    0.51475003    0.85727007    0.81286027    -0.33130000
opls_750-365    N    0.48904006    0.75292996    0.41090960    -0.13200000
opls_750-366    N    0.36029991    0.49823993    0.06064012    -0.32460000
opls_750-367    N    0.25198986    0.51966007    0.66399993    -0.13200000
opls_750-368    N    0.48524997    0.14272993    0.81286027    -0.33130000
opls_750-369    N    0.51095994    0.24707004    0.41090960    -0.13200000
opls_750-370    N    0.63970009    0.50176007    0.06064012    -0.32450000
opls_750-371    N    0.74801014    0.48033993    0.66399993    -0.13200000
opls_750-372    N    0.64272993    0.98524997    0.68713973    -0.33130000
opls_750-373    N    0.74707004    0.01095994    0.08909040    -0.13200000
opls_750-374    N    0.00176007    0.13970009    0.43935988    -0.32450000
opls_750-375    N    0.98033993    0.24801014    0.83600007    -0.13190000
opls_750-376    N    0.35727007    0.01475003    0.68713973    -0.33130000
opls_750-377    N    0.25292996    0.98904006    0.08909040    -0.13200000
opls_750-378    N    0.99823993    0.86029991    0.43935988    -0.32460000
opls_750-379    N    0.01966007    0.75198986    0.83600007    -0.13190000
opls_750-380    N    0.01475003    0.64272993    0.31286027    -0.33130000
opls_750-381    N    0.98904006    0.74707004    0.91090960    -0.13200000
opls_750-382    N    0.86029991    0.00176007    0.56064012    -0.32450000
opls_750-383    N    0.75198986    0.98033993    0.16399993    -0.13200000
opls_750-384    N    0.98524997    0.35727007    0.31286027    -0.33130000
opls_750-385    N    0.01095994    0.25292996    0.91090960    -0.13200000
opls_750-386    N    0.13970009    0.99823993    0.56064012    -0.32460000
opls_750-387    N    0.24801014    0.01966007    0.16399993    -0.13200000
