#======================================================================
# Crystal Data Generated By AuToFF
#----------------------------------------------------------------------

data_AuToFF_phase_1

_cell_length_a                         31.1540
_cell_length_b                         31.1540
_cell_length_c                         3.4000
_cell_angle_alpha                      90.00
_cell_angle_beta                       90.00
_cell_angle_gamma                      120.00
_symmetry_space_group_name_H-M_alt     'P 1'
_symmetry_space_group_IT_number        1

loop_
_space_group_symop_operation_xyz
   'x, y, z'

loop_
   _atom_site_label
   _atom_site_type_symbol
   _atom_site_fract_x
   _atom_site_fract_y
   _atom_site_fract_z
   _atom_site_charge
opls_280-0    C    0.68241004    0.38497993    0.94717059    0.36020000
opls_280-1    C    0.61501996    0.29742003    0.94717059    0.26920000
opls_280-2    C    0.70258009    0.31759004    0.94717059    0.26860000
opls_280-3    C    0.31758996    0.61502007    0.05282941    0.36020000
opls_280-4    C    0.38498999    0.70257997    0.05282941    0.26920000
opls_280-5    C    0.29741991    0.68240996    0.05282941    0.26870000
opls_700-6    C    0.62828990    0.35007984    0.95185000    -0.10970000
opls_700-7    C    0.64991998    0.27820999    0.95185000    -0.10970000
opls_700-8    C    0.72178993    0.37170980    0.95185000    -0.11430000
opls_700-9    C    0.37170991    0.64991979    0.04815000    -0.11440000
opls_700-10    C    0.35008002    0.72179001    0.04815000    -0.11440000
opls_700-11    C    0.27820988    0.62828982    0.04815000    -0.10970000
opls_142-12    C    0.59285982    0.36383995    0.95327059    -0.07800000
opls_142-13    C    0.63615994    0.22902014    0.95327059    -0.07770000
opls_142-14    C    0.77099006    0.40714992    0.95327059    -0.07770000
opls_142-15    C    0.40715013    0.63616005    0.04672941    -0.07800000
opls_142-16    C    0.36383993    0.77098987    0.04672941    -0.07770000
opls_142-17    C    0.22901989    0.59285008    0.04672941    -0.07770000
opls_145-18    C    0.45167978    0.46234974    0.01190882    -0.22320000
opls_145-19    C    0.53764982    0.98932994    0.01190882    -0.22320000
opls_145-20    C    0.01066989    0.54831995    0.01190882    -0.22320000
opls_145-21    C    0.54832003    0.53764989    0.98809118    -0.22320000
opls_145-22    C    0.46235018    0.01067006    0.98809118    -0.22320000
opls_145-23    C    0.98933011    0.45168005    0.98809118    -0.22320000
opls_166-24    C    0.48891979    0.45032980    0.99602059    0.23740000
opls_166-25    C    0.54966983    0.03858984    0.99602059    0.23740000
opls_166-26    C    0.96140987    0.51107999    0.99602059    0.23740000
opls_166-27    C    0.51108002    0.54966983    0.00397941    0.23740000
opls_166-28    C    0.45032998    0.96140979    0.00397941    0.23740000
opls_166-29    C    0.03859013    0.48892001    0.00397941    0.23740000
opls_700-30    C    0.53817983    0.48877990    0.98125882    -0.20310000
opls_700-31    C    0.51121987    0.04940000    0.98125882    -0.20310000
opls_700-32    C    0.95059997    0.46182009    0.98125882    -0.20310000
opls_700-33    C    0.46182017    0.51122010    0.01874118    -0.20310000
opls_700-34    C    0.48878013    0.95060000    0.01874118    -0.20310000
opls_700-35    C    0.04940003    0.53817991    0.01874118    -0.20310000
opls_234-36    C    0.58028012    0.47793008    0.96130000    0.48260000
opls_234-37    C    0.52206992    0.10235002    0.96130000    0.46230000
opls_234-38    C    0.89764996    0.41971990    0.96130000    0.46230000
opls_234-39    C    0.41971988    0.52206992    0.03870000    0.46230000
opls_234-40    C    0.47793008    0.89764998    0.03870000    0.46230000
opls_234-41    C    0.10234985    0.58027973    0.03870000    0.46240000
opls_181-42    C    0.36611980    0.92879990    0.77960000    -0.18400000
opls_181-43    C    0.07119990    0.43731987    0.77960000    -0.18400000
opls_181-44    C    0.56267980    0.63387986    0.77960000    -0.18390000
opls_181-45    C    0.63388020    0.07120010    0.22040000    -0.18400000
opls_181-46    C    0.92879992    0.56267976    0.22040000    -0.18390000
opls_181-47    C    0.43732001    0.36611977    0.22040000    -0.18400000
opls_238-48    N    0.60334989    0.41218992    0.95345000    -0.06680000
opls_238-49    N    0.58781013    0.19117010    0.95345000    -0.06680000
opls_238-50    N    0.80882990    0.39664998    0.95345000    -0.06680000
opls_238-51    N    0.39665011    0.58781008    0.04655000    -0.06680000
opls_238-52    N    0.41218987    0.80882990    0.04655000    -0.06680000
opls_238-53    N    0.19117010    0.60335002    0.04655000    -0.06680000
opls_238-54    N    0.56791003    0.42888997    0.96150882    -0.26950000
opls_238-55    N    0.57111990    0.13902994    0.96150882    -0.26950000
opls_238-56    N    0.86096994    0.43209010    0.96150882    -0.26950000
opls_238-57    N    0.43209016    0.57112004    0.03849118    -0.26950000
opls_238-58    N    0.42888987    0.86096969    0.03849118    -0.26950000
opls_238-59    N    0.13903006    0.56790990    0.03849118    -0.26940000
opls_281-60    O    0.69628981    0.42910976    0.94054118    -0.34400000
opls_281-61    O    0.57089007    0.26719004    0.94054118    -0.34340000
opls_281-62    O    0.73280985    0.30370984    0.94054118    -0.34370000
opls_281-63    O    0.30371000    0.57088987    0.05945882    -0.34400000
opls_281-64    O    0.42910993    0.73280996    0.05945882    -0.34380000
opls_281-65    O    0.26718996    0.69628979    0.05945882    -0.34370000
opls_236-66    O    0.37650986    0.48933994    0.05462059    -0.36620000
opls_236-67    O    0.51065970    0.88716968    0.05462059    -0.36610000
opls_236-68    O    0.11282993    0.62349000    0.05462059    -0.36620000
opls_236-69    O    0.62349014    0.51066006    0.94537941    -0.36620000
opls_236-70    O    0.48934012    0.11282995    0.94537941    -0.36620000
opls_236-71    O    0.88717007    0.37651000    0.94537941    -0.36620000
opls_179-72    O    0.40111976    0.92349971    0.01592059    -0.16990000
opls_179-73    O    0.07649979    0.47761985    0.01592059    -0.16980000
opls_179-74    O    0.52237994    0.59888007    0.01592059    -0.16990000
opls_179-75    O    0.59888005    0.07649992    0.98407941    -0.16990000
opls_179-76    O    0.92350003    0.52237978    0.98407941    -0.16990000
opls_179-77    O    0.47762006    0.40111993    0.98407941    -0.16990000
opls_144-78    H    0.44669001    0.66343973    0.04530882    0.08360000
opls_144-79    H    0.33655983    0.78324999    0.04530882    0.08360000
opls_144-80    H    0.21674997    0.55330991    0.04530882    0.10180000
opls_144-81    H    0.55330980    0.33655990    0.95469118    0.07050000
opls_144-82    H    0.66344017    0.21675001    0.95469118    0.07050000
opls_144-83    H    0.78325003    0.44669009    0.95469118    0.08360000
opls_910-84    H    0.63943013    0.43995996    0.94955882    0.25760000
opls_910-85    H    0.56003989    0.19946991    0.94955882    0.25770000
opls_910-86    H    0.80053975    0.36056977    0.94955882    0.25750000
opls_910-87    H    0.36056987    0.56004004    0.05044118    0.25760000
opls_910-88    H    0.43995992    0.80052972    0.05044118    0.25770000
opls_910-89    H    0.19947002    0.63942986    0.05044118    0.25780000
opls_910-90    H    0.40226988    0.87040996    0.02930882    0.28170000
opls_146-91    H    0.56804997    0.98100975    0.01315882    0.12000000
opls_185-92    H    0.65995019    0.06613007    0.03515000    0.10610000
opls_185-93    H    0.61611993    0.03980999    0.42665882    0.09610000
opls_185-94    H    0.65510012    0.10479997    0.40119118    0.08540000
opls_910-95    H    0.12959011    0.53187009    0.02930882    0.28030000
opls_146-96    H    0.01898987    0.58703988    0.01315882    0.10280000
opls_185-97    H    0.93386997    0.59382005    0.03515000    0.10610000
opls_185-98    H    0.96018994    0.57630978    0.42665882    0.09610000
opls_185-99    H    0.89520004    0.55029992    0.40119118    0.08540000
opls_910-100    H    0.46813005    0.59771995    0.02930882    0.28040000
opls_146-101    H    0.41295998    0.43195000    0.01315882    0.10280000
opls_185-102    H    0.40617984    0.34004987    0.03515000    0.10610000
opls_185-103    H    0.42368995    0.38387986    0.42665882    0.09610000
opls_185-104    H    0.44970016    0.34490010    0.40119118    0.08540000
opls_910-105    H    0.59773012    0.12959004    0.97069118    0.28040000
opls_146-106    H    0.43194984    0.01898988    0.98684118    0.10280000
opls_185-107    H    0.34004981    0.93386993    0.96485000    0.10610000
opls_185-108    H    0.38388007    0.96019001    0.57334118    0.09610000
opls_185-109    H    0.34489988    0.89520003    0.59880882    0.08540000
opls_910-110    H    0.87040989    0.46812991    0.97069118    0.28030000
opls_146-111    H    0.98100995    0.41295975    0.98684118    0.10280000
opls_185-112    H    0.06613003    0.40617995    0.96485000    0.10620000
opls_185-113    H    0.03980987    0.42368985    0.57334118    0.09610000
opls_185-114    H    0.10479996    0.44970008    0.59880882    0.08540000
opls_910-115    H    0.53186995    0.40228005    0.97069118    0.28030000
opls_146-116    H    0.58704002    0.56805000    0.98684118    0.10280000
opls_185-117    H    0.59381997    0.65994976    0.96485000    0.10610000
opls_185-118    H    0.57630987    0.61611977    0.57334118    0.09610000
opls_185-119    H    0.55029984    0.65509990    0.59880882    0.08540000
