#======================================================================
# Crystal Data Generated By AuToFF
#----------------------------------------------------------------------

data_AuToFF_phase_1

_cell_length_a                         19.4533
_cell_length_b                         19.4533
_cell_length_c                         3.5153
_cell_angle_alpha                      90.00
_cell_angle_beta                       90.00
_cell_angle_gamma                      120.00
_symmetry_space_group_name_H-M_alt     'P 1'
_symmetry_space_group_IT_number        1

loop_
_space_group_symop_operation_xyz
   'x, y, z'

loop_
   _atom_site_label
   _atom_site_type_symbol
   _atom_site_fract_x
   _atom_site_fract_y
   _atom_site_fract_z
   _atom_site_charge
opls_142-0    C    0.53943015    0.36473982    0.00000000    -0.06670000
opls_145-1    C    0.65182016    0.25055010    0.00000000    -0.18900000
opls_280-2    C    0.58437995    0.26561030    0.00000000    0.38010000
opls_142-3    C    0.63525981    0.17467984    0.00000000    -0.06670000
opls_145-4    C    0.74944998    0.40127025    0.00000000    -0.18900000
opls_280-5    C    0.73438963    0.31876975    0.00000000    0.38010000
opls_142-6    C    0.82531990    0.46057025    0.00000000    -0.06670000
opls_145-7    C    0.59873016    0.34818025    0.00000000    -0.14270000
opls_280-8    C    0.68122991    0.41561995    0.00000000    0.38010000
opls_142-9    C    0.36474018    0.53943035    0.00000000    -0.06670000
opls_145-10    C    0.25055021    0.65182035    0.00000000    -0.18900000
opls_280-11    C    0.26560996    0.58438005    0.00000000    0.38010000
opls_142-12    C    0.17468005    0.63526018    0.00000000    -0.06670000
opls_145-13    C    0.40127006    0.74944990    0.00000000    -0.18900000
opls_280-14    C    0.31876994    0.73439029    0.00000000    0.38010000
opls_142-15    C    0.46057020    0.82532016    0.00000000    -0.06670000
opls_145-16    C    0.34818002    0.59873034    0.00000000    -0.14270000
opls_280-17    C    0.41561988    0.68123025    0.00000000    0.38010000
opls_141-18    C    0.99999985    0.60417996    0.00000000    0.26720000
opls_141-19    C    0.39581989    0.39582004    0.00000000    0.26720000
opls_141-20    C    0.60417975    0.00000000    0.00000000    0.26720000
opls_238-21    N    0.45726008    0.30550987    0.00000000    -0.12890000
opls_238-22    N    0.92705983    0.60645988    0.00000000    -0.20830000
opls_238-23    N    0.69448984    0.15175001    0.00000000    -0.12890000
opls_238-24    N    0.39353999    0.32059975    0.00000000    -0.20820000
opls_238-25    N    0.84825008    0.54274012    0.00000000    -0.12880000
opls_238-26    N    0.67939988    0.07293977    0.00000000    -0.20830000
opls_238-27    N    0.30550995    0.45725988    0.00000000    -0.12890000
opls_238-28    N    0.60646010    0.92706023    0.00000000    -0.20830000
opls_238-29    N    0.15175021    0.69449013    0.00000000    -0.12890000
opls_238-30    N    0.32059995    0.39354012    0.00000000    -0.20830000
opls_238-31    N    0.54273983    0.84824999    0.00000000    -0.12890000
opls_238-32    N    0.07294024    0.67940025    0.00000000    -0.20820000
opls_281-33    O    0.69256038    0.48333032    0.00000000    -0.32250000
opls_281-34    O    0.51667008    0.20923010    0.00000000    -0.32260000
opls_281-35    O    0.79076984    0.30744017    0.00000000    -0.32250000
opls_281-36    O    0.48332967    0.69255983    0.00000000    -0.32250000
opls_281-37    O    0.20923036    0.51667028    0.00000000    -0.32260000
opls_281-38    O    0.30743997    0.79076990    0.00000000    -0.32260000
opls_474-39    S    0.00000011    0.53020024    0.00000000    -0.19000000
opls_474-40    S    0.46980017    0.46980035    0.00000000    -0.19010000
opls_474-41    S    0.53020002    0.00000000    0.00000000    -0.19010000
opls_144-42    H    0.55347976    0.42908996    0.00000000    0.02650000
opls_910-43    H    0.43944027    0.24166011    0.00000000    0.21920000
opls_910-44    H    0.93895012    0.66853010    0.00000000    0.21920000
opls_144-45    H    0.57090997    0.12438023    0.00000000    0.02650000
opls_910-46    H    0.75834018    0.19776994    0.00000000    0.21920000
opls_910-47    H    0.33146978    0.27042004    0.00000000    0.21920000
opls_144-48    H    0.87561991    0.44652031    0.00000000    0.02650000
opls_910-49    H    0.80222993    0.56055986    0.00000000    0.26840000
opls_910-50    H    0.72958010    0.06104986    0.00000000    0.21920000
opls_144-51    H    0.42909013    0.55348028    0.00000000    0.02650000
opls_910-52    H    0.24166031    0.43944014    0.00000000    0.21920000
opls_910-53    H    0.66853024    0.93895014    0.00000000    0.21920000
opls_144-54    H    0.12438004    0.57091004    0.00000000    0.02650000
opls_910-55    H    0.19776987    0.75833989    0.00000000    0.21920000
opls_910-56    H    0.27042002    0.33146990    0.00000000    0.21920000
opls_144-57    H    0.44652027    0.87562036    0.00000000    0.02650000
opls_910-58    H    0.56055996    0.80223006    0.00000000    0.26840000
opls_910-59    H    0.06104974    0.72957996    0.00000000    0.21920000
