#======================================================================
# Crystal Data Generated By AuToFF
#----------------------------------------------------------------------

data_AuToFF_phase_1

_cell_length_a                         37.6700
_cell_length_b                         37.6700
_cell_length_c                         3.7100
_cell_angle_alpha                      90.00
_cell_angle_beta                       90.00
_cell_angle_gamma                      120.00
_symmetry_space_group_name_H-M_alt     'P 1'
_symmetry_space_group_IT_number        1

loop_
_space_group_symop_operation_xyz
   'x, y, z'

loop_
   _atom_site_label
   _atom_site_type_symbol
   _atom_site_fract_x
   _atom_site_fract_y
   _atom_site_fract_z
   _atom_site_charge
opls_145-0    C    0.31345012    0.62391005    0.41757951    -0.05370000
opls_700-1    C    0.28993996    0.64345996    0.41795957    0.08210000
opls_145-2    C    0.22077993    0.63455003    0.58185984    -0.07210000
opls_700-3    C    0.24409011    0.61893997    0.42136119    0.08520000
opls_145-4    C    0.22301992    0.57948980    0.26694879    -0.07210000
opls_145-5    C    0.18027000    0.55642001    0.27632884    -0.10450000
opls_145-6    C    0.15730990    0.57237982    0.42987871    0.23980000
opls_145-7    C    0.17797999    0.61176991    0.58398113    -0.12570000
opls_142-8    C    0.08706994    0.55873983    0.50636119    0.01720000
opls_145-9    C    0.02820981    0.48777985    0.40953908    -0.12580000
opls_700-10    C    0.04249009    0.52890000    0.50374933    0.00500000
opls_729-11    C    0.01369016    0.54093010    0.59491105    0.08660000
opls_145-12    C    0.37608992    0.68954008    0.41757951    -0.05370000
opls_700-13    C    0.35653992    0.64647990    0.41795957    0.08210000
opls_145-14    C    0.36545006    0.58623010    0.58185984    -0.07210000
opls_700-15    C    0.38105999    0.62514997    0.42136119    0.08520000
opls_145-16    C    0.42050981    0.64352985    0.26694879    -0.07210000
opls_145-17    C    0.44357988    0.62384997    0.27632884    -0.10450000
opls_145-18    C    0.42761993    0.58492980    0.42987871    0.23980000
opls_145-19    C    0.38823002    0.56620998    0.58398113    -0.12580000
opls_142-20    C    0.44125996    0.52832986    0.50636119    0.01720000
opls_145-21    C    0.51221996    0.54042984    0.40953908    -0.12590000
opls_700-22    C    0.47110003    0.51359003    0.50374933    0.00500000
opls_729-23    C    0.45906987    0.47275986    0.59491105    0.08660000
opls_145-24    C    0.31045996    0.68654987    0.41757951    -0.05810000
opls_700-25    C    0.35351997    0.71005984    0.41795957    0.08210000
opls_145-26    C    0.41377001    0.77921987    0.58185984    -0.07210000
opls_700-27    C    0.37484991    0.75591006    0.42136119    0.08520000
opls_145-28    C    0.35647011    0.77698005    0.26694879    -0.07210000
opls_145-29    C    0.37615012    0.81973002    0.27632884    -0.10450000
opls_145-30    C    0.41506986    0.84268977    0.42987871    0.23980000
opls_145-31    C    0.43378983    0.82201980    0.58398113    -0.12580000
opls_142-32    C    0.47166994    0.91293001    0.50636119    0.01720000
opls_145-33    C    0.45957007    0.97179000    0.40953908    -0.12590000
opls_700-34    C    0.48640988    0.95750997    0.50374933    0.00500000
opls_729-35    C    0.52723997    0.98631004    0.59491105    0.08660000
opls_145-36    C    0.68654988    0.37608995    0.58242049    -0.05370000
opls_700-37    C    0.71006004    0.35654004    0.58204043    0.08210000
opls_145-38    C    0.77922007    0.36544997    0.41814016    -0.07210000
opls_700-39    C    0.75590989    0.38106003    0.57863881    0.08520000
opls_145-40    C    0.77697993    0.42050990    0.73305121    -0.07210000
opls_145-41    C    0.81973000    0.44357999    0.72367116    -0.10450000
opls_145-42    C    0.84268995    0.42761987    0.57012129    0.23980000
opls_145-43    C    0.82202001    0.38823009    0.41601887    -0.12570000
opls_142-44    C    0.91292991    0.44125986    0.49363881    0.01720000
opls_145-45    C    0.97179004    0.51221984    0.59046092    -0.12590000
opls_700-46    C    0.95750991    0.47110000    0.49625067    0.00500000
opls_729-47    C    0.98630984    0.45906990    0.40508895    0.08660000
opls_145-48    C    0.62391008    0.31045992    0.58242049    -0.05370000
opls_700-49    C    0.64346008    0.35352010    0.58204043    0.08220000
opls_145-50    C    0.63454994    0.41376990    0.41814016    -0.07210000
opls_700-51    C    0.61894001    0.37485003    0.57863881    0.08530000
opls_145-52    C    0.57949003    0.35646985    0.73305121    -0.07210000
opls_145-53    C    0.55642012    0.37615003    0.72367116    -0.10450000
opls_145-54    C    0.57237992    0.41506990    0.57012129    0.23980000
opls_145-55    C    0.61176998    0.43379002    0.41601887    -0.12580000
opls_142-56    C    0.55873988    0.47166984    0.49363881    0.01720000
opls_145-57    C    0.48777988    0.45956985    0.59046092    -0.12590000
opls_700-58    C    0.52889997    0.48640997    0.49625067    0.00500000
opls_729-59    C    0.54092998    0.52723983    0.40508895    0.08660000
opls_145-60    C    0.68953988    0.31344982    0.58242049    -0.05810000
opls_700-61    C    0.64647988    0.28993985    0.58204043    0.08220000
opls_145-62    C    0.58622999    0.22078013    0.41814016    -0.07210000
opls_700-63    C    0.62515009    0.24408994    0.57863881    0.08540000
opls_145-64    C    0.64352989    0.22301995    0.73305121    -0.07210000
opls_145-65    C    0.62384988    0.18026998    0.72367116    -0.10450000
opls_145-66    C    0.58492998    0.15730993    0.57012129    0.23990000
opls_145-67    C    0.56621001    0.17797989    0.41601887    -0.12580000
opls_142-68    C    0.52833006    0.08706999    0.49363881    0.01730000
opls_145-69    C    0.54042993    0.02821000    0.59046092    -0.12590000
opls_700-70    C    0.51359012    0.04249003    0.49625067    0.00500000
opls_729-71    C    0.47276003    0.01368996    0.40508895    0.08660000
opls_750-72    N    0.11342002    0.54708002    0.43229111    -0.25680000
opls_750-73    N    0.45291991    0.56633995    0.43229111    -0.25690000
opls_750-74    N    0.43366007    0.88658003    0.43229111    -0.25690000
opls_750-75    N    0.88657998    0.45291998    0.56770889    -0.25680000
opls_750-76    N    0.54708009    0.43366005    0.56770889    -0.25690000
opls_750-77    N    0.56633993    0.11341997    0.56770889    -0.25690000
opls_730-78    Br    0.02944002    0.59613992    0.72801887    -0.04560000
opls_730-79    Br    0.40385992    0.43329988    0.72801887    -0.04560000
opls_730-80    Br    0.56669991    0.97055989    0.72801887    -0.04560000
opls_730-81    Br    0.97055998    0.40386008    0.27198113    -0.04550000
opls_730-82    Br    0.59613992    0.56669981    0.27198113    -0.04560000
opls_730-83    Br    0.43330009    0.02944011    0.27198113    -0.04560000
opls_146-84    H    0.23683011    0.66618000    0.71239892    0.05190000
opls_146-85    H    0.24088986    0.56604997    0.13229919    0.05190000
opls_146-86    H    0.16370006    0.52418005    0.15790027    0.05190000
opls_146-87    H    0.15961012    0.62508008    0.71105930    0.05190000
opls_144-88    H    0.09817995    0.59220009    0.57416981    0.03070000
opls_146-89    H    0.29761013    0.58901002    0.41694879    0.05190000
opls_146-90    H    0.05093987    0.47735996    0.33505930    0.05190000
opls_146-91    H    0.33382012    0.57065007    0.71239892    0.05190000
opls_146-92    H    0.43395003    0.67483979    0.13229919    0.05190000
opls_146-93    H    0.47581992    0.63952993    0.15790027    0.05190000
opls_146-94    H    0.37491992    0.53453005    0.71105930    0.05190000
opls_144-95    H    0.40779998    0.50598010    0.57416981    0.03070000
opls_146-96    H    0.41099000    0.70859003    0.41694879    0.05190000
opls_146-97    H    0.52263996    0.57357989    0.33505930    0.05190000
opls_146-98    H    0.42935003    0.76316993    0.71239892    0.05190000
opls_146-99    H    0.32515996    0.75910993    0.13229919    0.05190000
opls_146-100    H    0.36046980    0.83629983    0.15790027    0.05130000
opls_146-101    H    0.46546995    0.84038987    0.71105930    0.05190000
opls_144-102    H    0.49401981    0.90181981    0.57416981    0.03070000
opls_146-103    H    0.29140994    0.70238983    0.41694879    0.05200000
opls_146-104    H    0.42642002    0.94905984    0.33505930    0.05190000
opls_146-105    H    0.76316989    0.33382000    0.28760108    0.05190000
opls_146-106    H    0.75911014    0.43395003    0.86770081    0.05190000
opls_146-107    H    0.83629994    0.47581995    0.84209973    0.05190000
opls_146-108    H    0.84038988    0.37491992    0.28894070    0.05190000
opls_144-109    H    0.90182005    0.40779991    0.42583019    0.03070000
opls_146-110    H    0.70238987    0.41098998    0.58305121    0.05200000
opls_146-111    H    0.94906013    0.52264004    0.66494070    0.05190000
opls_146-112    H    0.66617988    0.42934993    0.28760108    0.05190000
opls_146-113    H    0.56604982    0.32515990    0.86770081    0.05190000
opls_146-114    H    0.52418008    0.36047007    0.84209973    0.05190000
opls_146-115    H    0.62508008    0.46546995    0.28894070    0.05190000
opls_144-116    H    0.59220002    0.49401990    0.42583019    0.03070000
opls_146-117    H    0.58901000    0.29140997    0.58305121    0.05190000
opls_146-118    H    0.47736004    0.42642011    0.66494070    0.05200000
opls_146-119    H    0.57064997    0.23683007    0.28760108    0.05190000
opls_146-120    H    0.67484004    0.24089007    0.86770081    0.05190000
opls_146-121    H    0.63953005    0.16369986    0.84209973    0.05130000
opls_146-122    H    0.53453005    0.15961013    0.28894070    0.05190000
opls_144-123    H    0.50598004    0.09817988    0.42583019    0.03070000
opls_146-124    H    0.70858990    0.29760986    0.58305121    0.05190000
opls_146-125    H    0.57357983    0.05093985    0.66494070    0.05190000
