#======================================================================
# Crystal Data Generated By AuToFF
#----------------------------------------------------------------------

data_AuToFF_phase_1

_cell_length_a                         41.1994
_cell_length_b                         41.1994
_cell_length_c                         4.5828
_cell_angle_alpha                      90.00
_cell_angle_beta                       90.00
_cell_angle_gamma                      120.00
_symmetry_space_group_name_H-M_alt     'P 1'
_symmetry_space_group_IT_number        1

loop_
_space_group_symop_operation_xyz
   'x, y, z'

loop_
   _atom_site_label
   _atom_site_type_symbol
   _atom_site_fract_x
   _atom_site_fract_y
   _atom_site_fract_z
   _atom_site_charge
opls_141-0    C    0.48282992    0.48404991    0.51029065    -0.00270000
opls_700-1    C    0.44769011    0.48463007    0.52227023    0.07800000
opls_145-2    C    0.41863001    0.46140988    0.33395959    -0.08430000
opls_145-3    C    0.38598988    0.46256992    0.32625906    -0.18240000
opls_145-4    C    0.38137997    0.48685010    0.51207995    0.21960000
opls_145-5    C    0.40983990    0.50920004    0.70909051    -0.16700000
opls_145-6    C    0.44239985    0.50796993    0.71264947    -0.16820000
opls_700-7    C    0.47763996    0.44633998    0.50265995    0.07570000
opls_145-8    C    0.44883997    0.41762003    0.66477045    -0.12910000
opls_145-9    C    0.44352985    0.38194992    0.66400017    -0.16780000
opls_145-10    C    0.46701997    0.37395995    0.49751026    0.21960000
opls_145-11    C    0.49485005    0.40214009    0.32474033    -0.16790000
opls_145-12    C    0.50016003    0.43755993    0.33148948    -0.16960000
opls_142-13    C    0.31779005    0.46209991    0.45334075    0.07770000
opls_142-14    C    0.48974982    0.33366985    0.45864101    0.07760000
opls_567-15    C    0.48484996    0.29741004    0.44560094    -0.02990000
opls_716-16    C    0.51195013    0.28727011    0.44342978    -0.15310000
opls_567-17    C    0.49565003    0.24849992    0.44385092    -0.03750000
opls_567-18    C    0.45638995    0.22976996    0.44215109    -0.03750000
opls_567-19    C    0.28634988    0.46703997    0.44274025    -0.02990000
opls_716-20    C    0.24906996    0.44007984    0.43881033    -0.15420000
opls_141-21    C    0.51594994    0.99877998    0.51029065    -0.00270000
opls_700-22    C    0.51537005    0.96305998    0.52227023    0.07800000
opls_145-23    C    0.53858998    0.95721997    0.33395959    -0.08430000
opls_145-24    C    0.53742995    0.92341982    0.32625906    -0.18240000
opls_145-25    C    0.51314996    0.89453003    0.51207995    0.21960000
opls_145-26    C    0.49079993    0.90063994    0.70909051    -0.16700000
opls_145-27    C    0.49202992    0.93443000    0.71264947    -0.16820000
opls_700-28    C    0.55366008    0.03130012    0.50265995    0.07570000
opls_145-29    C    0.58237989    0.03121997    0.66477045    -0.12910000
opls_145-30    C    0.61805004    0.06158006    0.66400017    -0.16780000
opls_145-31    C    0.62603996    0.09306012    0.49751026    0.21960000
opls_145-32    C    0.59786015    0.09271006    0.32474033    -0.16790000
opls_145-33    C    0.56244000    0.06259997    0.33148948    -0.16960000
opls_142-34    C    0.53790003    0.85569005    0.45334075    0.07770000
opls_142-35    C    0.66633009    0.15607994    0.45864101    0.07760000
opls_567-36    C    0.70259005    0.18744004    0.44560094    -0.02990000
opls_716-37    C    0.71273003    0.22467995    0.44342978    -0.15310000
opls_567-38    C    0.75149985    0.24714985    0.44385092    -0.03750000
opls_567-39    C    0.77023000    0.22661999    0.44215109    -0.03750000
opls_567-40    C    0.53295996    0.81931001    0.44274025    -0.02990000
opls_716-41    C    0.55992001    0.80898987    0.43881033    -0.15420000
opls_141-42    C    0.00122000    0.51716983    0.51029065    -0.00270000
opls_700-43    C    0.03694009    0.55230995    0.52227023    0.07800000
opls_145-44    C    0.04277987    0.58136987    0.33395959    -0.08430000
opls_145-45    C    0.07658003    0.61400997    0.32625906    -0.18240000
opls_145-46    C    0.10546983    0.61861987    0.51207995    0.21960000
opls_145-47    C    0.09935992    0.59016002    0.70909051    -0.16700000
opls_145-48    C    0.06556999    0.55760007    0.71264947    -0.16820000
opls_700-49    C    0.96869996    0.52235989    0.50265995    0.07570000
opls_145-50    C    0.96877990    0.55116000    0.66477045    -0.12910000
opls_145-51    C    0.93842011    0.55647002    0.66400017    -0.16780000
opls_145-52    C    0.90694007    0.53297993    0.49751026    0.21960000
opls_145-53    C    0.90729004    0.50514984    0.32474033    -0.16790000
opls_145-54    C    0.93739983    0.49983983    0.33148948    -0.16960000
opls_142-55    C    0.14430992    0.68221004    0.45334075    0.07770000
opls_142-56    C    0.84391995    0.51024994    0.45864101    0.07760000
opls_567-57    C    0.81255998    0.51514992    0.44560094    -0.02990000
opls_716-58    C    0.77532008    0.48804994    0.44342978    -0.15310000
opls_567-59    C    0.75284998    0.50434995    0.44385092    -0.03750000
opls_567-60    C    0.77338005    0.54361006    0.44215109    -0.03750000
opls_567-61    C    0.18068992    0.71365002    0.44274025    -0.02990000
opls_716-62    C    0.19100989    0.75093001    0.43881033    -0.15420000
opls_141-63    C    0.51717008    0.51595009    0.51029065    -0.00270000
opls_700-64    C    0.55230989    0.51536993    0.52227023    0.07800000
opls_145-65    C    0.58136985    0.53858984    0.33395959    -0.08430000
opls_145-66    C    0.61401012    0.53743008    0.32625906    -0.18240000
opls_145-67    C    0.61862003    0.51314990    0.51207995    0.21960000
opls_145-68    C    0.59016010    0.49079996    0.70909051    -0.16700000
opls_145-69    C    0.55760015    0.49203007    0.71264947    -0.16820000
opls_700-70    C    0.52236004    0.55366002    0.50265995    0.07570000
opls_145-71    C    0.55116003    0.58237997    0.66477045    -0.12910000
opls_145-72    C    0.55647015    0.61805008    0.66400017    -0.16780000
opls_145-73    C    0.53298003    0.62604005    0.49751026    0.21960000
opls_145-74    C    0.50514995    0.59785991    0.32474033    -0.16790000
opls_145-75    C    0.49983997    0.56244007    0.33148948    -0.16960000
opls_142-76    C    0.68220995    0.53790009    0.45334075    0.07770000
opls_142-77    C    0.51025004    0.66632987    0.45864101    0.07760000
opls_567-78    C    0.51515004    0.70258996    0.44560094    -0.02990000
opls_716-79    C    0.48804987    0.71272989    0.44342978    -0.15300000
opls_567-80    C    0.50434983    0.75149980    0.44385092    -0.03750000
opls_567-81    C    0.54361005    0.77023004    0.44215109    -0.03750000
opls_567-82    C    0.71365012    0.53296003    0.44274025    -0.02990000
opls_716-83    C    0.75092990    0.55991988    0.43881033    -0.15420000
opls_141-84    C    0.48405006    0.00122002    0.51029065    -0.00270000
opls_700-85    C    0.48462995    0.03694002    0.52227023    0.07800000
opls_145-86    C    0.46141002    0.04278003    0.33395959    -0.08430000
opls_145-87    C    0.46256991    0.07657990    0.32625906    -0.18240000
opls_145-88    C    0.48685004    0.10546997    0.51207995    0.21960000
opls_145-89    C    0.50920007    0.09936006    0.70909051    -0.16690000
opls_145-90    C    0.50797008    0.06557000    0.71264947    -0.16820000
opls_700-91    C    0.44633992    0.96869988    0.50265995    0.07580000
opls_145-92    C    0.41762011    0.96878003    0.66477045    -0.12910000
opls_145-93    C    0.38194996    0.93841994    0.66400017    -0.16780000
opls_145-94    C    0.37396004    0.90693988    0.49751026    0.21960000
opls_145-95    C    0.40213985    0.90728994    0.32474033    -0.16790000
opls_145-96    C    0.43756000    0.93740003    0.33148948    -0.16960000
opls_142-97    C    0.46209997    0.14430995    0.45334075    0.07770000
opls_142-98    C    0.33366991    0.84392006    0.45864101    0.07760000
opls_567-99    C    0.29740995    0.81255996    0.44560094    -0.02990000
opls_716-100    C    0.28726997    0.77532005    0.44342978    -0.15310000
opls_567-101    C    0.24850001    0.75284987    0.44385092    -0.03750000
opls_567-102    C    0.22977000    0.77338001    0.44215109    -0.03750000
opls_567-103    C    0.46704004    0.18068999    0.44274025    -0.02990000
opls_716-104    C    0.44007985    0.19100985    0.43881033    -0.15420000
opls_141-105    C    0.99877986    0.48282989    0.51029065    -0.00270000
opls_700-106    C    0.96305991    0.44769005    0.52227023    0.07800000
opls_145-107    C    0.95721999    0.41862985    0.33395959    -0.08430000
opls_145-108    C    0.92341997    0.38599003    0.32625906    -0.18240000
opls_145-109    C    0.89453003    0.38137985    0.51207995    0.21960000
opls_145-110    C    0.90064008    0.40983998    0.70909051    -0.16690000
opls_145-111    C    0.93443001    0.44239993    0.71264947    -0.16820000
opls_700-112    C    0.03129990    0.47763983    0.50265995    0.07570000
opls_145-113    C    0.03122010    0.44884000    0.66477045    -0.12910000
opls_145-114    C    0.06157989    0.44352998    0.66400017    -0.16760000
opls_145-115    C    0.09305993    0.46702007    0.49751026    0.21960000
opls_145-116    C    0.09270982    0.49484988    0.32474033    -0.16790000
opls_145-117    C    0.06260003    0.50015989    0.33148948    -0.16960000
opls_142-118    C    0.85569008    0.31778996    0.45334075    0.07770000
opls_142-119    C    0.15608005    0.48975006    0.45864101    0.07760000
opls_567-120    C    0.18744002    0.48485008    0.44560094    -0.02990000
opls_716-121    C    0.22467992    0.51195006    0.44342978    -0.15310000
opls_567-122    C    0.24715002    0.49565005    0.44385092    -0.03750000
opls_567-123    C    0.22661995    0.45638994    0.44215109    -0.03750000
opls_567-124    C    0.81931008    0.28634998    0.44274025    -0.02990000
opls_716-125    C    0.80899011    0.24906999    0.43881033    -0.15420000
opls_146-126    H    0.46539993    0.52620998    0.85741032    0.10780000
opls_146-127    H    0.42279001    0.44301008    0.18529938    0.06410000
opls_146-128    H    0.36441010    0.44635007    0.16345029    0.09930000
opls_146-129    H    0.40507013    0.52734003    0.85559047    0.09430000
opls_146-130    H    0.43033997    0.42385999    0.79399057    0.10700000
opls_146-131    H    0.42146996    0.35937996    0.79196997    0.10640000
opls_146-132    H    0.51111010    0.39523001    0.17369076    0.09930000
opls_146-133    H    0.52224007    0.45960998    0.20080082    0.10890000
opls_144-134    H    0.31318987    0.43342985    0.42716898    0.05230000
opls_144-135    H    0.51874997    0.35739004    0.44246094    0.05970000
opls_570-136    H    0.54172996    0.30775009    0.44500087    0.11180000
opls_570-137    H    0.23934989    0.41022984    0.43716069    0.11250000
opls_146-138    H    0.47378989    0.93918984    0.85741032    0.10780000
opls_146-139    H    0.55698992    0.97977984    0.18529938    0.06410000
opls_146-140    H    0.55365003    0.91805992    0.16345029    0.09930000
opls_146-141    H    0.47265992    0.87773002    0.85559047    0.09430000
opls_146-142    H    0.57614003    0.00647987    0.79399057    0.10700000
opls_146-143    H    0.64061983    0.06208988    0.79196997    0.10640000
opls_146-144    H    0.60477009    0.11588008    0.17369076    0.09930000
opls_146-145    H    0.54038987    0.06262996    0.20080082    0.10890000
opls_144-146    H    0.56656996    0.87976002    0.42716898    0.05230000
opls_144-147    H    0.64261001    0.16135997    0.44246094    0.05970000
opls_570-148    H    0.69225003    0.23397991    0.44500087    0.11180000
opls_570-149    H    0.58977011    0.82912006    0.43716069    0.11250000
opls_146-150    H    0.06081005    0.53459990    0.85741032    0.10770000
opls_146-151    H    0.02022007    0.57721009    0.18529938    0.06410000
opls_146-152    H    0.08194011    0.63559001    0.16345029    0.09930000
opls_146-153    H    0.12226995    0.59492995    0.85559047    0.09430000
opls_146-154    H    0.99351986    0.56965986    0.79399057    0.10700000
opls_146-155    H    0.93790982    0.57852988    0.79196997    0.10650000
opls_146-156    H    0.88412005    0.48888991    0.17369076    0.09930000
opls_146-157    H    0.93737006    0.47776006    0.20080082    0.10890000
opls_144-158    H    0.12024002    0.68680985    0.42716898    0.05230000
opls_144-159    H    0.83864002    0.48125000    0.44246094    0.05970000
opls_570-160    H    0.76602001    0.45827000    0.44500087    0.11180000
opls_570-161    H    0.17087987    0.76064981    0.43716069    0.11250000
opls_146-162    H    0.53460007    0.47379002    0.85741032    0.10770000
opls_146-163    H    0.57720999    0.55698992    0.18529938    0.06410000
opls_146-164    H    0.63558990    0.55364993    0.16345029    0.09930000
opls_146-165    H    0.59492987    0.47265997    0.85559047    0.09430000
opls_146-166    H    0.56966003    0.57614001    0.79399057    0.10700000
opls_146-167    H    0.57853004    0.64062004    0.79196997    0.10640000
opls_146-168    H    0.48888990    0.60476999    0.17369076    0.09930000
opls_146-169    H    0.47775993    0.54039002    0.20080082    0.10890000
opls_144-170    H    0.68680999    0.56656987    0.42716898    0.05230000
opls_144-171    H    0.48125003    0.64260996    0.44246094    0.05970000
opls_570-172    H    0.45827004    0.69224991    0.44500087    0.11180000
opls_570-173    H    0.76064997    0.58976988    0.43716069    0.11250000
opls_146-174    H    0.52620997    0.06080988    0.85741032    0.10770000
opls_146-175    H    0.44300994    0.02021988    0.18529938    0.06410000
opls_146-176    H    0.44634997    0.08194008    0.16345029    0.09940000
opls_146-177    H    0.52734008    0.12226998    0.85559047    0.09430000
opls_146-178    H    0.42385983    0.99351985    0.79399057    0.10700000
opls_146-179    H    0.35938003    0.93790984    0.79196997    0.10640000
opls_146-180    H    0.39522991    0.88411992    0.17369076    0.09930000
opls_146-181    H    0.45961013    0.93737004    0.20080082    0.10890000
opls_144-182    H    0.43343004    0.12023998    0.42716898    0.05230000
opls_144-183    H    0.35738999    0.83864003    0.44246094    0.05970000
opls_570-184    H    0.30774983    0.76601981    0.44500087    0.11180000
opls_570-185    H    0.41022989    0.17087994    0.43716069    0.11250000
opls_146-186    H    0.93918981    0.46539982    0.85741032    0.10770000
opls_146-187    H    0.97977993    0.42278991    0.18529938    0.06410000
opls_146-188    H    0.91805989    0.36440999    0.16345029    0.09930000
opls_146-189    H    0.87773005    0.40507005    0.85559047    0.09430000
opls_146-190    H    0.00648000    0.43033986    0.79399057    0.10700000
opls_146-191    H    0.06209004    0.42146984    0.79196997    0.10640000
opls_146-192    H    0.11587995    0.51111009    0.17369076    0.09930000
opls_146-193    H    0.06262994    0.52223994    0.20080082    0.10890000
opls_144-194    H    0.87975984    0.31318987    0.42716898    0.05230000
opls_144-195    H    0.16135998    0.51875000    0.44246094    0.05970000
opls_570-196    H    0.23397999    0.54173000    0.44500087    0.11180000
opls_570-197    H    0.82911999    0.23934991    0.43716069    0.11250000
opls_750-198    N    0.35009991    0.49025988    0.50772017    -0.17350000
opls_750-199    N    0.46169007    0.33844006    0.50133979    -0.17250000
opls_750-200    N    0.50974011    0.85984003    0.50772017    -0.17340000
opls_750-201    N    0.66156000    0.12325009    0.50133979    -0.17250000
opls_750-202    N    0.14015984    0.64989982    0.50772017    -0.17350000
opls_750-203    N    0.87674994    0.53830985    0.50133979    -0.17250000
opls_750-204    N    0.64989995    0.50973984    0.50772017    -0.17350000
opls_750-205    N    0.53830993    0.66155994    0.50133979    -0.17250000
opls_750-206    N    0.49025989    0.14015997    0.50772017    -0.17350000
opls_750-207    N    0.33844000    0.87674991    0.50133979    -0.17250000
opls_750-208    N    0.85984002    0.35009990    0.50772017    -0.17350000
opls_750-209    N    0.12324992    0.46168987    0.50133979    -0.17250000
opls_633-210    S    0.43982992    0.26017994    0.44512962    0.07780000
opls_633-211    S    0.29417003    0.51208992    0.45012001    0.07770000
opls_633-212    S    0.73981985    0.17964990    0.44512962    0.07770000
opls_633-213    S    0.48791005    0.78207991    0.45012001    0.07770000
opls_633-214    S    0.82034985    0.56016988    0.44512962    0.07770000
opls_633-215    S    0.21792002    0.70582989    0.45012001    0.07770000
opls_633-216    S    0.56017008    0.73982006    0.44512962    0.07770000
opls_633-217    S    0.70582997    0.48791008    0.45012001    0.07770000
opls_633-218    S    0.26018001    0.82034982    0.44512962    0.07770000
opls_633-219    S    0.51208995    0.21792009    0.45012001    0.07770000
opls_633-220    S    0.17965001    0.43982984    0.44512962    0.07770000
opls_633-221    S    0.78207998    0.29417011    0.45012001    0.07770000
