#======================================================================
# Crystal Data Generated By AuToFF
#----------------------------------------------------------------------

data_AuToFF_phase_1

_cell_length_a                         37.4349
_cell_length_b                         20.6383
_cell_length_c                         9.2868
_cell_angle_alpha                      90.00
_cell_angle_beta                       90.00
_cell_angle_gamma                      90.00
_symmetry_space_group_name_H-M_alt     'P 1'
_symmetry_space_group_IT_number        1

loop_
_space_group_symop_operation_xyz
   'x, y, z'

loop_
   _atom_site_label
   _atom_site_type_symbol
   _atom_site_fract_x
   _atom_site_fract_y
   _atom_site_fract_z
   _atom_site_charge
opls_142-0    C    0.67192005    0.28911005    0.95087005    0.07780000
opls_145-1    C    0.60860000    0.27483998    0.95767003    0.19350000
opls_145-2    C    0.58254009    0.28914009    0.06049985    -0.16340000
opls_145-3    C    0.55290010    0.24878018    0.07649029    -0.11910000
opls_700-4    C    0.54846013    0.19473988    0.98623961    0.06170000
opls_145-5    C    0.57369994    0.18282998    0.87737972    -0.12330000
opls_145-6    C    0.60390999    0.22202022    0.86460029    -0.16950000
opls_700-7    C    0.41706002    0.18607007    0.99829974    0.06960000
opls_145-8    C    0.41154992    0.23568996    0.89675023    -0.13190000
opls_145-9    C    0.38137994    0.27541997    0.90509971    -0.17080000
opls_145-10    C    0.35566998    0.26498016    0.01237025    0.18690000
opls_145-11    C    0.36045989    0.21450023    0.11129991    -0.16930000
opls_145-12    C    0.39135005    0.17631006    0.10673967    -0.13140000
opls_142-13    C    0.32264999    0.36511001    0.01123961    0.06910000
opls_145-14    C    0.73110012    0.43482990    0.90139015    -0.11850000
opls_145-15    C    0.70206011    0.39301008    0.88974997    -0.11210000
opls_700-16    C    0.70315989    0.33185001    0.95463992    0.05790000
opls_145-17    C    0.73382004    0.31270986    0.02956993    -0.12060000
opls_145-18    C    0.76258011    0.35528992    0.04410992    -0.13000000
opls_145-19    C    0.74930987    0.62522010    0.96809019    -0.12550000
opls_145-20    C    0.71719011    0.65892007    0.98179997    -0.11740000
opls_700-21    C    0.68884009    0.63255985    0.06157988    0.05380000
opls_145-22    C    0.69337009    0.57228018    0.12841022    -0.11840000
opls_145-23    C    0.72582991    0.53926002    0.11744950    -0.12960000
opls_142-24    C    0.65461989    0.66735002    0.07642999    0.06940000
opls_145-25    C    0.61793994    0.76146000    0.01715015    0.19130000
opls_145-26    C    0.61301005    0.80880014    0.91094026    -0.17070000
opls_145-27    C    0.58247010    0.84776992    0.91102963    -0.12340000
opls_700-28    C    0.55684989    0.84117006    0.02030947    0.06150000
opls_145-29    C    0.56206989    0.79457998    0.12845975    -0.12390000
opls_145-30    C    0.59234992    0.75505977    0.12740018    -0.16920000
opls_700-31    C    0.52304000    0.87858981    0.01544989    0.02970000
opls_700-32    C    0.52163997    0.94729992    0.01663975    0.02360000
opls_700-33    C    0.48804004    0.97911989    0.00724038    0.02620000
opls_700-34    C    0.45621011    0.94223991    0.99919025    0.03260000
opls_700-35    C    0.45815002    0.87385977    0.00108972    0.03380000
opls_145-36    C    0.49128006    0.84314987    0.00783047    -0.08520000
opls_145-37    C    0.55267999    0.98505982    0.03026985    -0.11900000
opls_145-38    C    0.55095993    0.05243019    0.02760047    -0.11910000
opls_700-39    C    0.51814002    0.08485001    0.01018004    0.03090000
opls_700-40    C    0.48622996    0.04797004    0.00525046    0.02710000
opls_700-41    C    0.45256004    0.07974979    0.99732954    0.02270000
opls_145-42    C    0.42150987    0.04187990    0.98569044    -0.12000000
opls_145-43    C    0.42331007    0.97457979    0.98649050    -0.12010000
opls_700-44    C    0.51630003    0.15326020    0.99972972    0.02990000
opls_145-45    C    0.48294987    0.18380002    0.99581987    -0.17580000
opls_700-46    C    0.45104996    0.14848994    0.99714972    0.02810000
opls_700-47    C    0.42596988    0.83288013    0.99512965    0.06810000
opls_145-48    C    0.40264005    0.83034019    0.11299048    -0.11740000
opls_145-49    C    0.37114992    0.79440991    0.10432980    -0.16810000
opls_145-50    C    0.36249008    0.76141010    0.97632984    0.18820000
opls_145-51    C    0.38671000    0.76152009    0.86158957    -0.16460000
opls_145-52    C    0.41832007    0.79713009    0.87059052    -0.11880000
opls_142-53    C    0.30009002    0.74001008    0.02706960    0.06970000
opls_700-54    C    0.26824995    0.69946023    0.00523970    0.05250000
opls_145-55    C    0.23709987    0.71201019    0.08396972    -0.11910000
opls_145-56    C    0.20827997    0.66898000    0.07806026    -0.13190000
opls_700-57    C    0.20983013    0.61336011    0.99050050    0.06790000
opls_145-58    C    0.24001987    0.60449020    0.90352005    -0.13300000
opls_145-59    C    0.26912988    0.64615981    0.91184046    -0.11650000
opls_700-60    C    0.28818990    0.39931002    0.00574041    0.05560000
opls_145-61    C    0.28383995    0.45865018    0.07618986    -0.11740000
opls_145-62    C    0.25044010    0.48909988    0.07747986    -0.13090000
opls_700-63    C    0.22149011    0.46390982    0.99822975    0.06390000
opls_145-64    C    0.22688000    0.40571995    0.92175992    -0.13150000
opls_145-65    C    0.25937988    0.37280009    0.92988004    -0.11210000
opls_145-66    C    0.82060003    0.56830989    0.03113990    -0.28170000
opls_700-67    C    0.78928006    0.53053982    0.02204958    0.03620000
opls_700-68    C    0.79270013    0.46236996    0.99887044    0.04200000
opls_145-69    C    0.82731996    0.43540020    0.99058987    -0.24630000
opls_700-70    C    0.75424991    0.56495981    0.03608993    0.06770000
opls_700-71    C    0.76160000    0.41737982    0.98123035    0.06760000
opls_182-72    C    0.05745013    0.34184986    0.92740018    -0.01230000
opls_182-73    C    0.09351007    0.37408023    0.95557996    -0.01900000
opls_166-74    C    0.11996987    0.48096985    0.99413038    0.15260000
opls_166-75    C    0.11519999    0.54817015    0.99985033    0.13710000
opls_182-76    C    0.07534012    0.63316988    0.08196042    -0.02260000
opls_182-77    C    0.03966993    0.63321979    0.16240040    -0.01330000
opls_182-78    C    0.00236010    0.68091994    0.99010962    -0.01880000
opls_182-79    C    0.96222990    0.68497987    0.96352996    -0.02800000
opls_182-80    C    0.91708993    0.63598988    0.82835961    -0.01560000
opls_182-81    C    0.88565002    0.63697010    0.93392988    -0.02270000
opls_166-82    C    0.85467011    0.54085995    0.01551988    0.13830000
opls_166-83    C    0.85817993    0.47374009    0.00453009    0.13920000
opls_182-84    C    0.89788994    0.38375012    0.05778955    -0.02310000
opls_182-85    C    0.93485998    0.37874001    0.12737003    -0.02360000
opls_182-86    C    0.97438006    0.33360015    0.95951027    -0.01480000
opls_182-87    C    0.00597998    0.30410983    0.04240966    -0.02000000
opls_145-88    C    0.15500001    0.45572988    0.99776995    -0.22260000
opls_700-89    C    0.18544994    0.49617023    0.99651979    0.02800000
opls_700-90    C    0.18020991    0.56479991    0.99313973    0.02680000
opls_145-91    C    0.14513996    0.58912992    0.99295990    -0.26530000
opls_142-92    C    0.19080003    0.27737023    0.52605957    0.07070000
opls_145-93    C    0.12872988    0.25426997    0.46979046    0.19850000
opls_145-94    C    0.10437987    0.25713019    0.35567041    -0.16310000
opls_145-95    C    0.07277995    0.22152018    0.36070013    -0.12260000
opls_700-96    C    0.06504999    0.18342015    0.48145971    0.06740000
opls_145-97    C    0.08831999    0.18340997    0.59968988    -0.11900000
opls_145-98    C    0.12014003    0.21837991    0.59380949    -0.17080000
opls_700-99    C    0.93412003    0.17722002    0.48096976    0.06550000
opls_145-100    C    0.92637993    0.21886008    0.59620967    -0.12020000
opls_145-101    C    0.89611005    0.25840985    0.59251949    -0.17030000
opls_145-102    C    0.87321991    0.25738990    0.47207003    0.19120000
opls_145-103    C    0.88070010    0.21483989    0.35841948    -0.16830000
opls_145-104    C    0.91110995    0.17549992    0.36181031    -0.12550000
opls_142-105    C    0.83573003    0.34941977    0.53713012    0.06960000
opls_145-106    C    0.24962001    0.41397983    0.39957036    -0.12910000
opls_145-107    C    0.22064998    0.37228987    0.41140974    -0.12280000
opls_700-108    C    0.22212000    0.31928986    0.50558965    0.05250000
opls_145-109    C    0.25341005    0.30795996    0.58437029    -0.11910000
opls_145-110    C    0.28220003    0.35091989    0.57440022    -0.13190000
opls_145-111    C    0.26413000    0.61253979    0.41485011    -0.13090000
opls_145-112    C    0.23180000    0.64580997    0.42928996    -0.11880000
opls_700-113    C    0.20409992    0.62046002    0.51398975    0.05620000
opls_145-114    C    0.20963993    0.56178997    0.58611039    -0.12120000
opls_145-115    C    0.24278013    0.53053013    0.57884955    -0.13190000
opls_142-116    C    0.16987009    0.65533983    0.53159000    0.06830000
opls_145-117    C    0.13258991    0.74924001    0.47579037    0.19100000
opls_145-118    C    0.12603987    0.79511006    0.36781023    -0.16830000
opls_145-119    C    0.09574996    0.83471991    0.37332989    -0.12780000
opls_700-120    C    0.07188987    0.83009017    0.48950984    0.06270000
opls_145-121    C    0.07870997    0.78491979    0.59916010    -0.12860000
opls_145-122    C    0.10882011    0.74494023    0.59308050    -0.17510000
opls_700-123    C    0.03826002    0.86829002    0.49145992    0.03060000
opls_700-124    C    0.03724012    0.93702001    0.48914050    0.02370000
opls_700-125    C    0.00374009    0.96954982    0.48891976    0.02640000
opls_700-126    C    0.97160991    0.93343008    0.49152991    0.03240000
opls_700-127    C    0.97321003    0.86504993    0.49536008    0.03310000
opls_145-128    C    0.00620010    0.83360984    0.49487014    -0.14570000
opls_145-129    C    0.06868003    0.97413014    0.48887992    -0.12260000
opls_145-130    C    0.06730003    0.04142977    0.48469979    -0.11740000
opls_700-131    C    0.03440987    0.07455023    0.48513051    0.02980000
opls_700-132    C    0.00230988    0.03835006    0.48605978    0.02650000
opls_700-133    C    0.96882000    0.07082996    0.48420985    0.03250000
opls_145-134    C    0.93736994    0.03385017    0.48671017    -0.11440000
opls_145-135    C    0.93872990    0.96653019    0.48852027    -0.11730000
opls_700-136    C    0.03272989    0.14295993    0.48298984    0.03330000
opls_145-137    C    0.99970990    0.17430990    0.48046044    -0.10760000
opls_700-138    C    0.96776992    0.13943978    0.48145971    0.03360000
opls_700-139    C    0.94081993    0.82465998    0.49688052    0.06760000
opls_145-140    C    0.91800005    0.82522979    0.61649976    -0.12060000
opls_145-141    C    0.88629995    0.78978017    0.61394991    -0.16830000
opls_145-142    C    0.87739997    0.75268990    0.49190033    0.18900000
opls_145-143    C    0.90115988    0.74985004    0.37573976    -0.16910000
opls_145-144    C    0.93260994    0.78596977    0.37751001    -0.12010000
opls_142-145    C    0.81614002    0.72657002    0.55677952    0.07040000
opls_700-146    C    0.78480990    0.68474002    0.53581966    0.05250000
opls_145-147    C    0.75369989    0.69561979    0.61600013    -0.11920000
opls_145-148    C    0.72455997    0.65379997    0.60264031    -0.12890000
opls_700-149    C    0.72593997    0.60053008    0.50823965    0.06810000
opls_145-150    C    0.75670003    0.59191988    0.42370031    -0.13260000
opls_145-151    C    0.78590994    0.63296977    0.43811001    -0.12330000
opls_700-152    C    0.80165995    0.38483984    0.52276995    0.05550000
opls_145-153    C    0.79581006    0.44037009    0.60603006    -0.12060000
opls_145-154    C    0.76318996    0.47300989    0.59919025    -0.12530000
opls_700-155    C    0.73580990    0.45204983    0.50613021    0.06740000
opls_145-156    C    0.74235005    0.39732003    0.41945019    -0.13190000
opls_145-157    C    0.77463997    0.36355998    0.42912952    -0.12760000
opls_145-158    C    0.33692998    0.56058978    0.47500969    -0.22260000
opls_700-159    C    0.30604009    0.52132007    0.48047013    0.02800000
opls_700-160    C    0.31048006    0.45248010    0.47691024    0.03110000
opls_145-161    C    0.34515011    0.42666014    0.46719968    -0.25640000
opls_700-162    C    0.27042012    0.55464016    0.49121010    0.06760000
opls_700-163    C    0.28038007    0.40523008    0.48304044    0.06590000
opls_182-164    C    0.56960991    0.33559983    0.44902981    -0.02500000
opls_182-165    C    0.60655004    0.36600011    0.46269005    -0.01480000
opls_166-166    C    0.63462010    0.47220023    0.49215015    0.13960000
opls_166-167    C    0.63042001    0.53948000    0.49884029    0.13710000
opls_182-168    C    0.58921995    0.62356977    0.57656997    -0.02270000
opls_182-169    C    0.55254989    0.62096006    0.64986002    -0.01420000
opls_182-170    C    0.51660002    0.67634011    0.48356054    -0.02040000
opls_182-171    C    0.47666990    0.68137007    0.45087005    -0.01300000
opls_182-172    C    0.43347999    0.64270022    0.29041974    -0.01410000
opls_182-173    C    0.40087004    0.63388021    0.38835982    -0.02260000
opls_166-174    C    0.37137003    0.53377991    0.46144958    0.13630000
opls_166-175    C    0.37546995    0.46656992    0.46398975    0.13990000
opls_182-176    C    0.41634998    0.38514994    0.54944007    -0.01790000
opls_182-177    C    0.45430013    0.38705998    0.60924000    -0.02390000
opls_182-178    C    0.49094989    0.31206010    0.49181957    -0.02000000
opls_182-179    C    0.52258988    0.29987014    0.59410023    -0.01990000
opls_145-180    C    0.66937991    0.44566994    0.49512965    -0.22270000
opls_700-181    C    0.70011006    0.48516981    0.50066977    0.04110000
opls_700-182    C    0.69558994    0.55378980    0.50265969    0.03170000
opls_145-183    C    0.66077003    0.57958020    0.49947991    -0.28240000
opls_750-184    N    0.64007010    0.31375985    0.95164965    -0.30140000
opls_750-185    N    0.32340997    0.30224001    0.01540035    -0.35450000
opls_750-186    N    0.64957005    0.72218981    0.01083043    -0.35420000
opls_750-187    N    0.32959992    0.72685977    0.95969979    -0.35450000
opls_750-188    N    0.16144988    0.28955001    0.45682043    -0.35430000
opls_750-189    N    0.84173004    0.29705014    0.46321984    -0.34200000
opls_750-190    N    0.16410008    0.70971010    0.46478012    -0.34220000
opls_750-191    N    0.84492011    0.71645000    0.48231038    -0.35420000
opls_179-192    O    0.89293013    0.44745013    0.99961020    -0.24630000
opls_180-193    O    0.96229989    0.39138979    0.02594974    -0.20890000
opls_180-194    O    0.03534990    0.34742978    0.05052978    -0.21070000
opls_179-195    O    0.08901987    0.44167979    0.98576043    -0.23680000
opls_179-196    O    0.08008997    0.57274000    0.00790046    -0.23620000
opls_180-197    O    0.01027010    0.62389005    0.06889025    -0.21300000
opls_180-198    O    0.95024990    0.62680986    0.89881014    -0.20760000
opls_179-199    O    0.88583007    0.57897017    0.01920037    -0.26560000
opls_179-200    O    0.41023991    0.44062980    0.46006052    -0.24670000
opls_180-201    O    0.47962009    0.37748991    0.49790025    -0.21410000
opls_180-202    O    0.55010004    0.34643987    0.57732050    -0.21870000
opls_179-203    O    0.60321999    0.43429013    0.48531033    -0.25290000
opls_179-204    O    0.59542005    0.56484013    0.49780979    -0.24660000
opls_180-205    O    0.52416996    0.61588018    0.54943037    -0.21910000
opls_180-206    O    0.46608993    0.62907022    0.36199014    -0.21760000
opls_179-207    O    0.40253988    0.57209024    0.45856054    -0.23840000
opls_144-208    H    0.67565000    0.23722981    0.96224964    0.09890000
opls_146-209    H    0.58586987    0.33047005    0.13095038    0.11930000
opls_146-210    H    0.53357989    0.25934985    0.15994961    0.11630000
opls_146-211    H    0.57020000    0.14275013    0.80348990    0.11500000
opls_146-212    H    0.62350988    0.21154989    0.78203041    0.11220000
opls_146-213    H    0.43067993    0.24377977    0.81105009    0.11770000
opls_146-214    H    0.37760005    0.31342989    0.82638045    0.12140000
opls_146-215    H    0.34053998    0.20557992    0.19365013    0.11440000
opls_146-216    H    0.39530011    0.13940005    0.18818969    0.11350000
opls_144-217    H    0.34725003    0.39280997    0.01631025    0.09890000
opls_146-218    H    0.72872988    0.48182021    0.85209006    0.10970000
opls_146-219    H    0.67863010    0.40866011    0.83067041    0.11800000
opls_146-220    H    0.73502988    0.26567983    0.08117005    0.11320000
opls_146-221    H    0.78532012    0.33999990    0.10739006    0.12040000
opls_146-222    H    0.77038005    0.64646022    0.90370957    0.11680000
opls_146-223    H    0.71450011    0.70543020    0.92897984    0.11500000
opls_146-224    H    0.67185007    0.55088985    0.19022053    0.11460000
opls_146-225    H    0.72867004    0.49357990    0.17339988    0.11970000
opls_144-226    H    0.63366992    0.64549987    0.14036051    0.09980000
opls_146-227    H    0.63264013    0.81466981    0.82625016    0.11460000
opls_146-228    H    0.57857988    0.88245980    0.82496985    0.11490000
opls_146-229    H    0.54247988    0.78851989    0.21324999    0.11190000
opls_146-230    H    0.59560998    0.72031999    0.21345027    0.11510000
opls_146-231    H    0.49232000    0.79060000    0.00686997    0.11380000
opls_146-232    H    0.57866990    0.96301003    0.04414007    0.11620000
opls_146-233    H    0.57572987    0.07878023    0.04106043    0.11930000
opls_146-234    H    0.39544997    0.06373006    0.97325020    0.11990000
opls_146-235    H    0.39852010    0.94814980    0.97559008    0.12020000
opls_146-236    H    0.48183006    0.23631985    0.99082030    0.11180000
opls_146-237    H    0.40864007    0.85688017    0.21069044    0.11320000
opls_146-238    H    0.35380995    0.79241992    0.19738984    0.12130000
opls_146-239    H    0.38056012    0.73534012    0.76352027    0.11340000
opls_146-240    H    0.43637007    0.79810013    0.77949994    0.11530000
opls_144-241    H    0.29848003    0.78073000    0.10032950    0.11060000
opls_146-242    H    0.23556013    0.75384019    0.15422966    0.11340000
opls_146-243    H    0.18539010    0.67797978    0.14644011    0.11710000
opls_146-244    H    0.24246011    0.56210008    0.83828983    0.24460000
opls_146-245    H    0.29270013    0.63520978    0.84864001    0.11770000
opls_146-246    H    0.30577002    0.47977983    0.13623961    0.11470000
opls_146-247    H    0.24725003    0.53181997    0.14355968    0.11770000
opls_146-248    H    0.20590011    0.38511990    0.85592023    0.11630000
opls_146-249    H    0.26219010    0.32675996    0.87569992    0.11610000
opls_146-250    H    0.81869005    0.61974000    0.05295042    0.11540000
opls_146-251    H    0.83041013    0.38422981    0.96850045    0.11950000
opls_185-252    H    0.06307991    0.29028990    0.89940992    0.05750000
opls_185-253    H    0.04465993    0.36594002    0.83358961    0.05800000
opls_185-254    H    0.11021988    0.36757000    0.85745036    0.05760000
opls_185-255    H    0.10652012    0.34961019    0.04825020    0.05920000
opls_185-256    H    0.09655989    0.64115988    0.16412973    0.05760000
opls_185-257    H    0.07626012    0.67372991    0.00341991    0.05790000
opls_185-258    H    0.03683007    0.67797008    0.22855989    0.05790000
opls_185-259    H    0.04005006    0.59233997    0.24016992    0.05790000
opls_185-260    H    0.01053990    0.72649007    0.04564974    0.05750000
opls_185-261    H    0.01628000    0.67889022    0.88441982    0.05750000
opls_185-262    H    0.95734008    0.72840980    0.89488952    0.05700000
opls_185-263    H    0.94863991    0.69188015    0.06890964    0.05750000
opls_185-264    H    0.91692992    0.68011997    0.75952965    0.05750000
opls_185-265    H    0.91310008    0.59456980    0.75373972    0.05920000
opls_185-266    H    0.86081998    0.64267018    0.86917022    0.05760000
opls_185-267    H    0.88771013    0.67964997    0.00616036    0.05790000
opls_185-268    H    0.87778998    0.37272014    0.14274023    0.05760000
opls_185-269    H    0.89528996    0.34739005    0.97022010    0.05790000
opls_185-270    H    0.93780002    0.33091001    0.18201964    0.05660000
opls_185-271    H    0.93663987    0.41590005    0.21369040    0.05800000
opls_185-272    H    0.95286992    0.29664023    0.94731985    0.05690000
opls_185-273    H    0.98305004    0.34549987    0.84832020    0.05790000
opls_185-274    H    0.01310996    0.25624010    0.99490998    0.05780000
opls_185-275    H    0.99721997    0.29332019    0.15411983    0.05790000
opls_146-276    H    0.15884001    0.40396980    0.00471960    0.11910000
opls_146-277    H    0.14104993    0.64090986    0.98493022    0.11640000
opls_144-278    H    0.19270013    0.23644002    0.59859047    0.10570000
opls_146-279    H    0.11037989    0.28572024    0.26119977    0.11990000
opls_146-280    H    0.05472994    0.22251009    0.26946957    0.11450000
opls_146-281    H    0.08215008    0.15514020    0.69477969    0.11190000
opls_146-282    H    0.13768008    0.21745977    0.68625038    0.12020000
opls_146-283    H    0.94389994    0.22080985    0.68898006    0.11400000
opls_146-284    H    0.89066994    0.28884017    0.68461041    0.11730000
opls_146-285    H    0.86311998    0.21292984    0.26589030    0.11220000
opls_146-286    H    0.91694007    0.14424008    0.27112030    0.11220000
opls_144-287    H    0.85571993    0.36841988    0.61000022    0.09920000
opls_146-288    H    0.24685013    0.45591982    0.33318043    0.10900000
opls_146-289    H    0.19682008    0.38270982    0.34936038    0.11770000
opls_146-290    H    0.25513999    0.26697015    0.65689043    0.11460000
opls_146-291    H    0.30544999    0.34275013    0.64135009    0.11490000
opls_146-292    H    0.28436993    0.63280018    0.34480984    0.11710000
opls_146-293    H    0.22848999    0.69158991    0.37472972    0.11920000
opls_146-294    H    0.18887990    0.54156980    0.65391954    0.11790000
opls_146-295    H    0.24674007    0.48784008    0.64448034    0.12040000
opls_144-296    H    0.14955990    0.63418983    0.60000000    0.10570000
opls_146-297    H    0.14428995    0.79954018    0.27781044    0.11320000
opls_146-298    H    0.09077011    0.86863017    0.28663049    0.11650000
opls_146-299    H    0.06054991    0.78051002    0.68950984    0.11340000
opls_146-300    H    0.11347993    0.71167005    0.68095038    0.11600000
opls_146-301    H    0.00689998    0.78104011    0.49640027    0.11490000
opls_146-302    H    0.09477012    0.95168982    0.49242042    0.11740000
opls_146-303    H    0.09245998    0.06706996    0.48096007    0.11990000
opls_146-304    H    0.91133007    0.05652016    0.48747039    0.11910000
opls_146-305    H    0.91356996    0.94079987    0.48720980    0.11910000
opls_146-306    H    0.99885989    0.22685977    0.47779967    0.11370000
opls_146-307    H    0.92453993    0.85392014    0.71056984    0.11320000
opls_146-308    H    0.86923993    0.79094984    0.70783047    0.12020000
opls_146-309    H    0.89484999    0.72063009    0.28228023    0.11650000
opls_146-310    H    0.95024990    0.78470998    0.28504975    0.11400000
opls_144-311    H    0.81444989    0.76628986    0.63253973    0.09990000
opls_146-312    H    0.75222987    0.73562987    0.69128979    0.11320000
opls_146-313    H    0.70128009    0.66205017    0.66931020    0.11680000
opls_146-314    H    0.75941007    0.55112001    0.35272968    0.09610000
opls_146-315    H    0.80961990    0.62304986    0.37493001    0.11400000
opls_146-316    H    0.81639005    0.45829017    0.67776952    0.11770000
opls_146-317    H    0.75975013    0.51519020    0.66648038    0.12250000
opls_146-318    H    0.72241010    0.38038986    0.34389994    0.11670000
opls_146-319    H    0.77836003    0.32063978    0.36381961    0.11680000
opls_146-320    H    0.33430008    0.61256014    0.48651958    0.11670000
opls_146-321    H    0.34865994    0.37465004    0.46062045    0.11220000
opls_185-322    H    0.57342987    0.28312022    0.42475018    0.05750000
opls_185-323    H    0.55543998    0.35873013    0.35725008    0.05800000
opls_185-324    H    0.62154994    0.35658993    0.36142051    0.05750000
opls_185-325    H    0.62057999    0.34300015    0.55505987    0.05750000
opls_185-326    H    0.60945001    0.63067016    0.66303032    0.05770000
opls_185-327    H    0.59055988    0.66562023    0.50215036    0.05790000
opls_185-328    H    0.54907987    0.66283996    0.72431946    0.05780000
opls_185-329    H    0.55187993    0.57714007    0.71931020    0.05790000
opls_185-330    H    0.52389989    0.71895989    0.55119955    0.05690000
opls_185-331    H    0.53170010    0.67982004    0.38075979    0.05800000
opls_185-332    H    0.47203999    0.72937015    0.39905026    0.05690000
opls_185-333    H    0.46171006    0.67955985    0.55428996    0.05750000
opls_185-334    H    0.43320992    0.69177016    0.24048973    0.05760000
opls_185-335    H    0.43092008    0.60788001    0.19979002    0.05800000
opls_185-336    H    0.37672012    0.63907977    0.31949003    0.05750000
opls_185-337    H    0.40034994    0.67272983    0.47108046    0.05790000
opls_185-338    H    0.39777000    0.38466976    0.64302989    0.05760000
opls_185-339    H    0.41221988    0.34018984    0.48573028    0.05800000
opls_185-340    H    0.45670992    0.35163991    0.69933992    0.05780000
opls_185-341    H    0.45900991    0.43559014    0.65734053    0.05790000
opls_185-342    H    0.46893995    0.27714007    0.51500948    0.05750000
opls_185-343    H    0.49949005    0.30147977    0.37984020    0.05800000
opls_185-344    H    0.53262010    0.24933982    0.58165030    0.05780000
opls_185-345    H    0.51283001    0.30307002    0.70675044    0.05770000
opls_146-346    H    0.67286997    0.39373979    0.49658978    0.11910000
opls_146-347    H    0.65723990    0.63161016    0.49445019    0.11530000
