#======================================================================
# Crystal Data Generated By AuToFF
#----------------------------------------------------------------------

data_AuToFF_phase_1

_cell_length_a                         35.5555
_cell_length_b                         35.5555
_cell_length_c                         3.5347
_cell_angle_alpha                      90.00
_cell_angle_beta                       90.00
_cell_angle_gamma                      90.00
_symmetry_space_group_name_H-M_alt     'P 1'
_symmetry_space_group_IT_number        1

loop_
_space_group_symop_operation_xyz
   'x, y, z'

loop_
   _atom_site_label
   _atom_site_type_symbol
   _atom_site_fract_x
   _atom_site_fract_y
   _atom_site_fract_z
   _atom_site_charge
opls_166-0    C    0.48025003    0.68374991    0.50000000    0.16380000
opls_145-1    C    0.54043988    0.65006005    0.50000000    -0.22610000
opls_700-2    C    0.51965997    0.61623012    0.50000000    0.01000000
opls_543-3    C    0.53098002    0.57875997    0.50000000    0.37330000
opls_166-4    C    0.51974997    0.31625993    0.50000000    0.16380000
opls_145-5    C    0.45956997    0.34993995    0.50000000    -0.22610000
opls_700-6    C    0.48034003    0.38378001    0.50000000    0.01000000
opls_543-7    C    0.46901998    0.42124003    0.50000000    0.37330000
opls_166-8    C    0.31625993    0.48025003    0.50000000    0.16590000
opls_145-9    C    0.34993995    0.54043988    0.50000000    -0.22610000
opls_700-10    C    0.38378001    0.51965997    0.50000000    0.01000000
opls_543-11    C    0.42124003    0.53098002    0.50000000    0.37330000
opls_166-12    C    0.68374991    0.51974997    0.50000000    0.16460000
opls_145-13    C    0.65006005    0.45956997    0.50000000    -0.22610000
opls_700-14    C    0.61623012    0.48034003    0.50000000    0.01000000
opls_543-15    C    0.57875997    0.46901998    0.50000000    0.37330000
opls_166-16    C    0.51974997    0.68374991    0.50000000    0.16460000
opls_145-17    C    0.45956997    0.65006005    0.50000000    -0.22610000
opls_700-18    C    0.48034003    0.61623012    0.50000000    0.01000000
opls_543-19    C    0.46901998    0.57875997    0.50000000    0.37330000
opls_166-20    C    0.48025003    0.31625993    0.50000000    0.16590000
opls_145-21    C    0.54043988    0.34993995    0.50000000    -0.22610000
opls_700-22    C    0.51965997    0.38378001    0.50000000    0.01000000
opls_543-23    C    0.53098002    0.42124003    0.50000000    0.37330000
opls_166-24    C    0.68374991    0.48025003    0.50000000    0.16380000
opls_145-25    C    0.65006005    0.54043988    0.50000000    -0.22610000
opls_700-26    C    0.61623012    0.51965997    0.50000000    0.01000000
opls_543-27    C    0.57875997    0.53098002    0.50000000    0.37330000
opls_166-28    C    0.31625993    0.51974997    0.50000000    0.16380000
opls_145-29    C    0.34993995    0.45956997    0.50000000    -0.22610000
opls_700-30    C    0.38378001    0.48034003    0.50000000    0.01000000
opls_543-31    C    0.42124003    0.46901998    0.50000000    0.37330000
opls_145-32    C    0.50000000    0.13402005    0.50000000    0.16320000
opls_145-33    C    0.50000000    0.21567999    0.50000000    -0.26090000
opls_145-34    C    0.50000000    0.86597995    0.50000000    0.16320000
opls_145-35    C    0.50000000    0.78432001    0.50000000    -0.26090000
opls_145-36    C    0.86597995    0.50000000    0.50000000    0.16320000
opls_145-37    C    0.78432001    0.50000000    0.50000000    -0.26090000
opls_145-38    C    0.13402005    0.50000000    0.50000000    0.16320000
opls_145-39    C    0.21567999    0.50000000    0.50000000    -0.26090000
opls_700-40    C    0.48052988    0.96622013    0.50000000    -0.06640000
opls_234-41    C    0.46982014    0.07134986    0.50000000    0.41470000
opls_145-42    C    0.46631998    0.15575002    0.50000000    -0.17900000
opls_145-43    C    0.46604013    0.19535993    0.50000000    -0.12080000
opls_700-44    C    0.51947012    0.03377987    0.50000000    -0.06640000
opls_234-45    C    0.53017986    0.92865014    0.50000000    0.41470000
opls_145-46    C    0.53368987    0.84424998    0.50000000    -0.17900000
opls_145-47    C    0.53395987    0.80464007    0.50000000    -0.12080000
opls_700-48    C    0.03377987    0.48052988    0.50000000    -0.06640000
opls_234-49    C    0.92865014    0.46982014    0.50000000    0.41470000
opls_145-50    C    0.84424998    0.46631998    0.50000000    -0.17900000
opls_145-51    C    0.80464007    0.46604013    0.50000000    -0.12080000
opls_700-52    C    0.96622013    0.51947012    0.50000000    -0.06640000
opls_234-53    C    0.07134986    0.53017986    0.50000000    0.41470000
opls_145-54    C    0.15575002    0.53368987    0.50000000    -0.17900000
opls_145-55    C    0.19535993    0.53395987    0.50000000    -0.12080000
opls_700-56    C    0.51947012    0.96622013    0.50000000    -0.06640000
opls_234-57    C    0.53017986    0.07134986    0.50000000    0.41470000
opls_145-58    C    0.53368987    0.15575002    0.50000000    -0.17900000
opls_145-59    C    0.53395987    0.19535993    0.50000000    -0.12080000
opls_700-60    C    0.48052988    0.03377987    0.50000000    -0.06640000
opls_234-61    C    0.46982014    0.92865014    0.50000000    0.41470000
opls_145-62    C    0.46631998    0.84424998    0.50000000    -0.17900000
opls_145-63    C    0.46604013    0.80464007    0.50000000    -0.12080000
opls_700-64    C    0.96622013    0.48052988    0.50000000    -0.06640000
opls_234-65    C    0.07134986    0.46982014    0.50000000    0.41470000
opls_145-66    C    0.15575002    0.46631998    0.50000000    -0.17900000
opls_145-67    C    0.19535993    0.46604013    0.50000000    -0.12080000
opls_700-68    C    0.03377987    0.51947012    0.50000000    -0.06640000
opls_234-69    C    0.92865014    0.53017986    0.50000000    0.41470000
opls_145-70    C    0.84424998    0.53368987    0.50000000    -0.17900000
opls_145-71    C    0.80464007    0.53395987    0.50000000    -0.12080000
opls_145-72    C    0.45960991    0.00000000    0.50000000    -0.08770000
opls_145-73    C    0.54039009    0.00000000    0.50000000    -0.08770000
opls_145-74    C    0.00000000    0.45960991    0.50000000    -0.08770000
opls_145-75    C    0.00000000    0.54039009    0.50000000    -0.08770000
opls_167-76    O    0.53321005    0.71913009    0.50000000    -0.35880000
opls_167-77    O    0.46678995    0.28088003    0.50000000    -0.35950000
opls_167-78    O    0.28088003    0.53321005    0.50000000    -0.35950000
opls_167-79    O    0.71913009    0.46678995    0.50000000    -0.35880000
opls_167-80    O    0.46678995    0.71913009    0.50000000    -0.35880000
opls_167-81    O    0.53321005    0.28088003    0.50000000    -0.35950000
opls_167-82    O    0.71913009    0.53321005    0.50000000    -0.35880000
opls_167-83    O    0.28088003    0.46678995    0.50000000    -0.35950000
opls_236-84    O    0.43575987    0.07965997    0.50000000    -0.52530000
opls_236-85    O    0.56424013    0.92034988    0.50000000    -0.52430000
opls_236-86    O    0.92034988    0.43575987    0.50000000    -0.52430000
opls_236-87    O    0.07965997    0.56424013    0.50000000    -0.52540000
opls_236-88    O    0.56424013    0.07965997    0.50000000    -0.52540000
opls_236-89    O    0.43575987    0.92034988    0.50000000    -0.52430000
opls_236-90    O    0.07965997    0.43575987    0.50000000    -0.52530000
opls_236-91    O    0.92034988    0.56424013    0.50000000    -0.52440000
opls_146-92    H    0.56914008    0.65049992    0.50000000    0.23600000
opls_146-93    H    0.43085992    0.34950008    0.50000000    0.23600000
opls_146-94    H    0.34950008    0.56914008    0.50000000    0.23600000
opls_146-95    H    0.65049992    0.43085992    0.50000000    0.23600000
opls_146-96    H    0.43085992    0.65049992    0.50000000    0.23600000
opls_146-97    H    0.56914008    0.34950008    0.50000000    0.23600000
opls_146-98    H    0.65049992    0.56914008    0.50000000    0.23600000
opls_146-99    H    0.34950008    0.43085992    0.50000000    0.23600000
opls_146-100    H    0.44059991    0.14334997    0.50000000    0.23620000
opls_146-101    H    0.44077006    0.20932008    0.50000000    0.23600000
opls_146-102    H    0.55940009    0.85665003    0.50000000    0.23620000
opls_146-103    H    0.55922994    0.79067992    0.50000000    0.23600000
opls_146-104    H    0.85665003    0.44059991    0.50000000    0.23620000
opls_146-105    H    0.79067992    0.44077006    0.50000000    0.23600000
opls_146-106    H    0.14334997    0.55940009    0.50000000    0.23620000
opls_146-107    H    0.20932008    0.55922994    0.50000000    0.23600000
opls_146-108    H    0.55940009    0.14334997    0.50000000    0.23610000
opls_146-109    H    0.55922994    0.20932008    0.50000000    0.23600000
opls_146-110    H    0.44059991    0.85665003    0.50000000    0.23620000
opls_146-111    H    0.44077006    0.79067992    0.50000000    0.23600000
opls_146-112    H    0.14334997    0.44059991    0.50000000    0.23620000
opls_146-113    H    0.20932008    0.44077006    0.50000000    0.23600000
opls_146-114    H    0.85665003    0.55940009    0.50000000    0.23620000
opls_146-115    H    0.79067992    0.55922994    0.50000000    0.23600000
opls_146-116    H    0.43074995    0.00000000    0.50000000    0.23600000
opls_146-117    H    0.56925005    0.00000000    0.50000000    0.23600000
opls_146-118    H    0.00000000    0.43074995    0.50000000    0.23600000
opls_146-119    H    0.00000000    0.56925005    0.50000000    0.23600000
opls_750-120    N    0.56700004    0.56700004    0.50000000    -0.43520000
opls_750-121    N    0.43299996    0.43299996    0.50000000    -0.43520000
opls_750-122    N    0.43299996    0.56700004    0.50000000    -0.43520000
opls_750-123    N    0.56700004    0.43299996    0.50000000    -0.43520000
opls_542-124    N    0.50000000    0.09504999    0.50000000    -0.26790000
opls_542-125    N    0.50000000    0.90495001    0.50000000    -0.26790000
opls_542-126    N    0.90495001    0.50000000    0.50000000    -0.26790000
opls_542-127    N    0.09504999    0.50000000    0.50000000    -0.26790000
opls_542-128    N    0.50000000    0.55703000    0.50000000    -0.44360000
opls_542-129    N    0.50000000    0.44297000    0.50000000    -0.44360000
opls_542-130    N    0.44297000    0.50000000    0.50000000    -0.44360000
opls_542-131    N    0.55703000    0.50000000    0.50000000    -0.44360000
MOF2_B_2-132    B    0.50000000    0.74241004    0.50000000    0.55190000
MOF2_B_2-133    B    0.50000000    0.25758996    0.50000000    0.55190000
MOF2_B_2-134    B    0.25758996    0.50000000    0.50000000    0.55190000
MOF2_B_2-135    B    0.74241004    0.50000000    0.50000000    0.55190000
Cu2+-136    Cu    0.50000000    0.50000000    0.50000000    0.62140000
