#======================================================================
# Crystal Data Generated By AuToFF
#----------------------------------------------------------------------

data_AuToFF_phase_1

_cell_length_a                         18.3200
_cell_length_b                         18.3200
_cell_length_c                         3.6100
_cell_angle_alpha                      90.00
_cell_angle_beta                       90.00
_cell_angle_gamma                      120.00
_symmetry_space_group_name_H-M_alt     'P 1'
_symmetry_space_group_IT_number        1

loop_
_space_group_symop_operation_xyz
   'x, y, z'

loop_
   _atom_site_label
   _atom_site_type_symbol
   _atom_site_fract_x
   _atom_site_fract_y
   _atom_site_fract_z
   _atom_site_charge
opls_145-0    C    0.75362999    0.36995977    0.40073130    -0.15050000
opls_700-1    C    0.71847986    0.42275012    0.40963989    0.08540000
opls_700-2    C    0.77034009    0.51257974    0.45591967    0.07320000
opls_145-3    C    0.85267015    0.54979991    0.61591136    -0.11060000
opls_145-4    C    0.89984009    0.63519983    0.67245983    -0.14640000
opls_145-5    C    0.86906979    0.68912975    0.57842936    0.21970000
opls_145-6    C    0.78856001    0.65368007    0.41762881    -0.15160000
opls_145-7    C    0.74064975    0.56859972    0.35552078    -0.11540000
opls_142-8    C    0.89187001    0.82862976    0.67188089    0.00390000
opls_642-9    C    0.95171960    0.91779946    0.68493075    0.35150000
opls_145-10    C    0.63004021    0.38366994    0.40073130    -0.15050000
opls_700-11    C    0.57724980    0.29572994    0.40963989    0.08540000
opls_700-12    C    0.48741971    0.25775972    0.45591967    0.07320000
opls_145-13    C    0.45019970    0.30286992    0.61591136    -0.11060000
opls_145-14    C    0.36479981    0.26464002    0.67245983    -0.14640000
opls_145-15    C    0.31086997    0.17993973    0.57842936    0.21970000
opls_145-16    C    0.34631989    0.13487995    0.41762881    -0.15160000
opls_145-17    C    0.43139985    0.17204970    0.35552078    -0.11540000
opls_142-18    C    0.17137000    0.06324001    0.67188089    0.00390000
opls_642-19    C    0.08220015    0.03391995    0.68493075    0.35150000
opls_145-20    C    0.61633003    0.24636966    0.40073130    -0.15050000
opls_700-21    C    0.70426980    0.28151994    0.40963989    0.08540000
opls_700-22    C    0.74223989    0.22965991    0.45591967    0.07320000
opls_145-23    C    0.69713015    0.14733017    0.61591136    -0.11060000
opls_145-24    C    0.73536010    0.10016016    0.67245983    -0.14630000
opls_145-25    C    0.82005992    0.13092989    0.57842936    0.21980000
opls_145-26    C    0.86512010    0.21143998    0.41762881    -0.15160000
opls_145-27    C    0.82795009    0.25934995    0.35552078    -0.11540000
opls_142-28    C    0.93675999    0.10813024    0.67188089    0.00390000
opls_642-29    C    0.96607993    0.04827996    0.68493075    0.35150000
opls_750-30    N    0.91922003    0.77588983    0.64229917    -0.26800000
opls_641-31    N    0.03479984    0.95071977    0.68398061    -0.35570000
opls_750-32    N    0.22410971    0.14332968    0.64229917    -0.26810000
opls_641-33    N    0.04928021    0.08408008    0.68398061    -0.35580000
opls_750-34    N    0.85666995    0.08077985    0.64229917    -0.26810000
opls_641-35    N    0.91591963    0.96519953    0.68398061    -0.35580000
opls_146-36    H    0.82237007    0.39899997    0.41419945    0.09960000
opls_146-37    H    0.87856964    0.51024954    0.70857895    0.07650000
opls_146-38    H    0.96251013    0.66141001    0.79955125    0.11720000
opls_146-39    H    0.76299006    0.69398995    0.33206925    0.11740000
opls_146-40    H    0.67891988    0.54440963    0.22196122    0.06680000
opls_144-41    H    0.82472007    0.80995979    0.67234903    0.07350000
opls_146-42    H    0.60099980    0.42336970    0.41419945    0.09960000
opls_146-43    H    0.48974994    0.36831974    0.70857895    0.07650000
opls_146-44    H    0.33858987    0.30110005    0.79955125    0.11720000
opls_146-45    H    0.30600996    0.06900027    0.33206925    0.11750000
opls_146-46    H    0.45559014    0.13450997    0.22196122    0.06680000
opls_144-47    H    0.19004006    0.01476025    0.67234903    0.07350000
opls_146-48    H    0.57662981    0.17762970    0.41419945    0.09960000
opls_146-49    H    0.63168011    0.12143009    0.70857895    0.11710000
opls_146-50    H    0.69889999    0.03748994    0.79955125    0.11720000
opls_146-51    H    0.93099998    0.23700978    0.33206925    0.11740000
opls_146-52    H    0.86548967    0.32107977    0.22196122    0.06680000
opls_144-53    H    0.98523987    0.17527996    0.67234903    0.07350000
