#======================================================================
# Crystal Data Generated By AuToFF
#----------------------------------------------------------------------

data_AuToFF_phase_1

_cell_length_a                         27.9975
_cell_length_b                         29.2833
_cell_length_c                         5.0820
_cell_angle_alpha                      90.00
_cell_angle_beta                       90.00
_cell_angle_gamma                      90.00
_symmetry_space_group_name_H-M_alt     'P 1'
_symmetry_space_group_IT_number        1

loop_
_space_group_symop_operation_xyz
   'x, y, z'

loop_
   _atom_site_label
   _atom_site_type_symbol
   _atom_site_fract_x
   _atom_site_fract_y
   _atom_site_fract_z
   _atom_site_charge
opls_145-0    C    0.35080989    0.86310013    0.92073003    0.04840000
opls_145-1    C    0.34965015    0.83294984    0.73671980    -0.08270000
opls_145-2    C    0.32735994    0.78799008    0.75149941    -0.08440000
opls_145-3    C    0.30548013    0.77295011    0.94939984    0.04740000
opls_145-4    C    0.30876007    0.80189016    0.13478945    -0.11320000
opls_145-5    C    0.32949013    0.84700017    0.11916962    -0.11230000
opls_700-6    C    0.27622002    0.72837009    0.96236915    -0.02010000
opls_145-7    C    0.30576016    0.68492998    0.00848091    0.04850000
opls_145-8    C    0.37461988    0.91083997    0.91101928    0.05380000
opls_145-9    C    0.30882007    0.66805005    0.22324085    -0.12640000
opls_145-10    C    0.33018984    0.62388016    0.26592090    -0.08150000
opls_145-11    C    0.35165997    0.59660011    0.09629083    0.04930000
opls_145-12    C    0.35240004    0.61577008    0.88279024    -0.12600000
opls_145-13    C    0.32983016    0.65978015    0.84004919    -0.08780000
opls_145-14    C    0.37354014    0.54895008    0.14426013    0.09900000
opls_145-15    C    0.35365015    0.52125000    0.31732979    -0.08070000
opls_145-16    C    0.37559996    0.47768011    0.37000984    -0.06420000
opls_145-17    C    0.41695008    0.46010013    0.24747934    0.08190000
opls_145-18    C    0.43533994    0.48633009    0.06817985    -0.07670000
opls_145-19    C    0.41461988    0.53066014    0.01963007    -0.07300000
opls_145-20    C    0.40021002    0.92870988    0.09643054    -0.07720000
opls_145-21    C    0.42053005    0.97412006    0.09717041    -0.08300000
opls_145-22    C    0.41498991    0.00357986    0.91272924    0.02270000
opls_145-23    C    0.39087990    0.98552998    0.72395907    -0.08420000
opls_145-24    C    0.37076989    0.93953994    0.72287092    -0.08010000
opls_142-25    C    0.44042004    0.41462984    0.30956907    0.03720000
opls_142-26    C    0.43410983    0.05390991    0.91375049    0.03720000
opls_145-27    C    0.50688990    0.35534998    0.25185950    0.29440000
opls_145-28    C    0.50221984    0.33159992    0.45459071    -0.13020000
opls_145-29    C    0.52631985    0.28800989    0.48582054    -0.11400000
opls_145-30    C    0.55564997    0.26798995    0.31697954    0.09710000
opls_145-31    C    0.56286990    0.29276994    0.12038961    -0.11220000
opls_145-32    C    0.53822984    0.33604990    0.08763085    -0.08890000
opls_142-33    C    0.57664006    0.22297999    0.34403975    -0.04740000
opls_145-34    C    0.54191017    0.18683994    0.29145022    0.09710000
opls_145-35    C    0.52143013    0.18228991    0.07852027    -0.12610000
opls_145-36    C    0.48926011    0.14433004    0.02695986    -0.09340000
opls_145-37    C    0.47789017    0.11009995    0.18644038    0.29270000
opls_145-38    C    0.49732012    0.11521994    0.39951004    -0.13100000
opls_145-39    C    0.52932012    0.15326005    0.45125935    -0.11400000
opls_145-40    C    0.64919011    0.13689987    0.92073003    0.04840000
opls_145-41    C    0.65034985    0.16705016    0.73671980    -0.08270000
opls_145-42    C    0.67264006    0.21200992    0.75149941    -0.08440000
opls_145-43    C    0.69451987    0.22704989    0.94939984    0.04740000
opls_145-44    C    0.69123993    0.19810984    0.13478945    -0.11320000
opls_145-45    C    0.67050987    0.15299983    0.11916962    -0.11230000
opls_700-46    C    0.72377998    0.27162991    0.96236915    -0.02010000
opls_145-47    C    0.69423984    0.31507002    0.00848091    0.04850000
opls_145-48    C    0.62538012    0.08916003    0.91101928    0.05380000
opls_145-49    C    0.69117993    0.33194995    0.22324085    -0.12640000
opls_145-50    C    0.66981016    0.37611984    0.26592090    -0.08150000
opls_145-51    C    0.64834003    0.40339989    0.09629083    0.04930000
opls_145-52    C    0.64759996    0.38422992    0.88279024    -0.12600000
opls_145-53    C    0.67016984    0.34021985    0.84004919    -0.08780000
opls_145-54    C    0.62645986    0.45104992    0.14426013    0.09900000
opls_145-55    C    0.64634985    0.47875000    0.31732979    -0.08070000
opls_145-56    C    0.62440004    0.52231989    0.37000984    -0.06420000
opls_145-57    C    0.58304992    0.53989987    0.24747934    0.08190000
opls_145-58    C    0.56466006    0.51366991    0.06817985    -0.07670000
opls_145-59    C    0.58538012    0.46933986    0.01963007    -0.07300000
opls_145-60    C    0.59978998    0.07129012    0.09643054    -0.07720000
opls_145-61    C    0.57946995    0.02587994    0.09717041    -0.08300000
opls_145-62    C    0.58501009    0.99642014    0.91272924    0.02270000
opls_145-63    C    0.60912010    0.01447002    0.72395907    -0.08420000
opls_145-64    C    0.62923011    0.06046006    0.72287092    -0.08010000
opls_142-65    C    0.55957996    0.58537016    0.30956907    0.03720000
opls_142-66    C    0.56589017    0.94609009    0.91375049    0.03720000
opls_145-67    C    0.49311010    0.64465002    0.25185950    0.29440000
opls_145-68    C    0.49778016    0.66840008    0.45459071    -0.13020000
opls_145-69    C    0.47368015    0.71199011    0.48582054    -0.11400000
opls_145-70    C    0.44435003    0.73201005    0.31697954    0.09710000
opls_145-71    C    0.43713010    0.70723006    0.12038961    -0.11220000
opls_145-72    C    0.46177016    0.66395010    0.08763085    -0.08890000
opls_142-73    C    0.42335994    0.77702001    0.34403975    -0.04740000
opls_145-74    C    0.45808983    0.81316006    0.29145022    0.09710000
opls_145-75    C    0.47856987    0.81771009    0.07852027    -0.12610000
opls_145-76    C    0.51073989    0.85566996    0.02695986    -0.09340000
opls_145-77    C    0.52210983    0.88990005    0.18644038    0.29270000
opls_145-78    C    0.50267988    0.88478006    0.39951004    -0.13100000
opls_145-79    C    0.47067988    0.84673995    0.45125935    -0.11400000
opls_145-80    C    0.85080989    0.13689987    0.92073003    0.04840000
opls_145-81    C    0.84965015    0.16705016    0.73671980    -0.08270000
opls_145-82    C    0.82735994    0.21200992    0.75149941    -0.08440000
opls_145-83    C    0.80548013    0.22704989    0.94939984    0.04740000
opls_145-84    C    0.80876007    0.19810984    0.13478945    -0.11320000
opls_145-85    C    0.82949013    0.15299983    0.11916962    -0.11230000
opls_700-86    C    0.77622002    0.27162991    0.96236915    -0.02010000
opls_145-87    C    0.80576016    0.31507002    0.00848091    0.04850000
opls_145-88    C    0.87461988    0.08916003    0.91101928    0.05380000
opls_145-89    C    0.80882007    0.33194995    0.22324085    -0.12640000
opls_145-90    C    0.83018984    0.37611984    0.26592090    -0.08150000
opls_145-91    C    0.85165997    0.40339989    0.09629083    0.04930000
opls_145-92    C    0.85240004    0.38422992    0.88279024    -0.12600000
opls_145-93    C    0.82983016    0.34021985    0.84004919    -0.08780000
opls_145-94    C    0.87354014    0.45104992    0.14426013    0.09900000
opls_145-95    C    0.85365015    0.47875000    0.31732979    -0.08070000
opls_145-96    C    0.87559996    0.52231989    0.37000984    -0.06420000
opls_145-97    C    0.91695008    0.53989987    0.24747934    0.08190000
opls_145-98    C    0.93533994    0.51366991    0.06817985    -0.07670000
opls_145-99    C    0.91461988    0.46933986    0.01963007    -0.07300000
opls_145-100    C    0.90021002    0.07129012    0.09643054    -0.07720000
opls_145-101    C    0.92053005    0.02587994    0.09717041    -0.08300000
opls_145-102    C    0.91498991    0.99642014    0.91272924    0.02270000
opls_145-103    C    0.89087990    0.01447002    0.72395907    -0.08420000
opls_145-104    C    0.87076989    0.06046006    0.72287092    -0.08010000
opls_142-105    C    0.94042004    0.58537016    0.30956907    0.03720000
opls_142-106    C    0.93410983    0.94609009    0.91375049    0.03720000
opls_145-107    C    0.00688990    0.64465002    0.25185950    0.29440000
opls_145-108    C    0.00221984    0.66840008    0.45459071    -0.13020000
opls_145-109    C    0.02631985    0.71199011    0.48582054    -0.11400000
opls_145-110    C    0.05564997    0.73201005    0.31697954    0.09710000
opls_145-111    C    0.06286990    0.70723006    0.12038961    -0.11220000
opls_145-112    C    0.03822984    0.66395010    0.08763085    -0.08890000
opls_142-113    C    0.07664006    0.77702001    0.34403975    -0.04740000
opls_145-114    C    0.04191017    0.81316006    0.29145022    0.09710000
opls_145-115    C    0.02143013    0.81771009    0.07852027    -0.12610000
opls_145-116    C    0.98926011    0.85566996    0.02695986    -0.09340000
opls_145-117    C    0.97789017    0.88990005    0.18644038    0.29270000
opls_145-118    C    0.99732012    0.88478006    0.39951004    -0.13100000
opls_145-119    C    0.02932012    0.84673995    0.45125935    -0.11400000
opls_145-120    C    0.14919011    0.86310013    0.92073003    0.04840000
opls_145-121    C    0.15034985    0.83294984    0.73671980    -0.08270000
opls_145-122    C    0.17264006    0.78799008    0.75149941    -0.08440000
opls_145-123    C    0.19451987    0.77295011    0.94939984    0.04740000
opls_145-124    C    0.19123993    0.80189016    0.13478945    -0.11320000
opls_145-125    C    0.17050987    0.84700017    0.11916962    -0.11230000
opls_700-126    C    0.22377998    0.72837009    0.96236915    -0.02010000
opls_145-127    C    0.19423984    0.68492998    0.00848091    0.04850000
opls_145-128    C    0.12538012    0.91083997    0.91101928    0.05380000
opls_145-129    C    0.19117993    0.66805005    0.22324085    -0.12640000
opls_145-130    C    0.16981016    0.62388016    0.26592090    -0.08150000
opls_145-131    C    0.14834003    0.59660011    0.09629083    0.04930000
opls_145-132    C    0.14759996    0.61577008    0.88279024    -0.12600000
opls_145-133    C    0.17016984    0.65978015    0.84004919    -0.08780000
opls_145-134    C    0.12645986    0.54895008    0.14426013    0.09900000
opls_145-135    C    0.14634985    0.52125000    0.31732979    -0.08070000
opls_145-136    C    0.12440004    0.47768011    0.37000984    -0.06420000
opls_145-137    C    0.08304992    0.46010013    0.24747934    0.08190000
opls_145-138    C    0.06466006    0.48633009    0.06817985    -0.07670000
opls_145-139    C    0.08538012    0.53066014    0.01963007    -0.07300000
opls_145-140    C    0.09978998    0.92870988    0.09643054    -0.07720000
opls_145-141    C    0.07946995    0.97412006    0.09717041    -0.08300000
opls_145-142    C    0.08501009    0.00357986    0.91272924    0.02270000
opls_145-143    C    0.10912010    0.98552998    0.72395907    -0.08420000
opls_145-144    C    0.12923011    0.93953994    0.72287092    -0.08010000
opls_142-145    C    0.05957996    0.41462984    0.30956907    0.03720000
opls_142-146    C    0.06589017    0.05390991    0.91375049    0.03720000
opls_145-147    C    0.99311010    0.35534998    0.25185950    0.29440000
opls_145-148    C    0.99778016    0.33159992    0.45459071    -0.13020000
opls_145-149    C    0.97368015    0.28800989    0.48582054    -0.11400000
opls_145-150    C    0.94435003    0.26798995    0.31697954    0.09710000
opls_145-151    C    0.93713010    0.29276994    0.12038961    -0.11220000
opls_145-152    C    0.96177016    0.33604990    0.08763085    -0.08890000
opls_142-153    C    0.92335994    0.22297999    0.34403975    -0.04740000
opls_145-154    C    0.95808983    0.18683994    0.29145022    0.09710000
opls_145-155    C    0.97856987    0.18228991    0.07852027    -0.12610000
opls_145-156    C    0.01073989    0.14433004    0.02695986    -0.09340000
opls_145-157    C    0.02210983    0.11009995    0.18644038    0.29270000
opls_145-158    C    0.00267988    0.11521994    0.39951004    -0.13100000
opls_145-159    C    0.97067988    0.15326005    0.45125935    -0.11400000
opls_750-160    N    0.48060005    0.39883995    0.20606061    -0.15030000
opls_750-161    N    0.44913010    0.06857014    0.13455923    -0.21710000
opls_750-162    N    0.51939995    0.60116005    0.20606061    -0.15030000
opls_750-163    N    0.55086990    0.93142986    0.13455923    -0.21710000
opls_750-164    N    0.98060005    0.60116005    0.20606061    -0.15030000
opls_750-165    N    0.94913010    0.93142986    0.13455923    -0.21710000
opls_750-166    N    0.01939995    0.39883995    0.20606061    -0.15030000
opls_750-167    N    0.05086990    0.06857014    0.13455923    -0.21710000
opls_146-168    H    0.36720993    0.84034006    0.53886068    0.05620000
opls_146-169    H    0.32914010    0.76386985    0.57568083    0.05620000
opls_146-170    H    0.29445986    0.79319988    0.33877017    0.05620000
opls_146-171    H    0.32724993    0.87106986    0.29505903    0.05620000
opls_146-172    H    0.29453987    0.68705986    0.40247934    0.05620000
opls_146-173    H    0.32987017    0.60801003    0.47073987    0.05620000
opls_146-174    H    0.37126993    0.59910017    0.70877017    0.05620000
opls_146-175    H    0.33502991    0.67210014    0.62919913    0.05620000
opls_146-176    H    0.31950996    0.53188985    0.42312082    0.05620000
opls_146-177    H    0.35944995    0.45383990    0.52342975    0.05620000
opls_146-178    H    0.46762997    0.47429012    0.95039945    0.05620000
opls_146-179    H    0.43444986    0.55156010    0.86510035    0.05620000
opls_146-180    H    0.40860005    0.90814013    0.28119048    0.05620000
opls_146-181    H    0.44330994    0.98588991    0.27029909    0.05620000
opls_146-182    H    0.38363997    0.00589005    0.53696970    0.05620000
opls_146-183    H    0.34982016    0.92693993    0.54474026    0.05620000
opls_144-184    H    0.42330994    0.39046999    0.45807950    0.03320000
opls_144-185    H    0.43392017    0.07479997    0.72447068    0.03320000
opls_146-186    H    0.47845986    0.34398002    0.62219992    0.05620000
opls_146-187    H    0.52077007    0.26709012    0.67249902    0.05620000
opls_146-188    H    0.58925011    0.28153009    0.96228060    0.05620000
opls_146-189    H    0.54827002    0.35396011    0.89629083    0.05620000
opls_146-190    H    0.52744995    0.20828015    0.91482094    0.05620000
opls_146-191    H    0.47032985    0.14162987    0.82897088    0.05620000
opls_146-192    H    0.49056987    0.08973989    0.56499016    0.05620000
opls_146-193    H    0.54715992    0.15672004    0.65192050    0.05620000
opls_144-194    H    0.61586999    0.21930998    0.40029909    0.05620000
opls_146-195    H    0.63279007    0.15965994    0.53886068    0.05620000
opls_146-196    H    0.67085990    0.23613015    0.57568083    0.05620000
opls_146-197    H    0.70554014    0.20680012    0.33877017    0.05620000
opls_146-198    H    0.67275007    0.12893014    0.29505903    0.05620000
opls_146-199    H    0.70546013    0.31294014    0.40247934    0.05620000
opls_146-200    H    0.67012983    0.39198997    0.47073987    0.05620000
opls_146-201    H    0.62873007    0.40089983    0.70877017    0.05620000
opls_146-202    H    0.66497009    0.32789986    0.62919913    0.05620000
opls_146-203    H    0.68049004    0.46811015    0.42312082    0.05620000
opls_146-204    H    0.64055005    0.54616010    0.52342975    0.05620000
opls_146-205    H    0.53237003    0.52570988    0.95039945    0.05620000
opls_146-206    H    0.56555014    0.44843990    0.86510035    0.05620000
opls_146-207    H    0.59139995    0.09185987    0.28119048    0.05620000
opls_146-208    H    0.55669006    0.01411009    0.27029909    0.05620000
opls_146-209    H    0.61636003    0.99410995    0.53696970    0.05620000
opls_146-210    H    0.65017984    0.07306007    0.54474026    0.05620000
opls_144-211    H    0.57669006    0.60953001    0.45807950    0.03320000
opls_144-212    H    0.56607983    0.92520003    0.72447068    0.03320000
opls_146-213    H    0.52154014    0.65601998    0.62219992    0.05620000
opls_146-214    H    0.47922993    0.73290988    0.67249902    0.05620000
opls_146-215    H    0.41074989    0.71846991    0.96228060    0.05620000
opls_146-216    H    0.45172998    0.64603989    0.89629083    0.05620000
opls_146-217    H    0.47255005    0.79171985    0.91482094    0.05620000
opls_146-218    H    0.52967015    0.85837013    0.82897088    0.05620000
opls_146-219    H    0.50943013    0.91026011    0.56499016    0.05620000
opls_146-220    H    0.45284008    0.84327996    0.65192050    0.05620000
opls_144-221    H    0.38413001    0.78069002    0.40029909    0.05620000
opls_146-222    H    0.86720993    0.15965994    0.53886068    0.05620000
opls_146-223    H    0.82914010    0.23613015    0.57568083    0.05620000
opls_146-224    H    0.79445986    0.20680012    0.33877017    0.05620000
opls_146-225    H    0.82724993    0.12893014    0.29505903    0.05620000
opls_146-226    H    0.79453987    0.31294014    0.40247934    0.05620000
opls_146-227    H    0.82987017    0.39198997    0.47073987    0.05620000
opls_146-228    H    0.87126993    0.40089983    0.70877017    0.05620000
opls_146-229    H    0.83502991    0.32789986    0.62919913    0.05620000
opls_146-230    H    0.81950996    0.46811015    0.42312082    0.05620000
opls_146-231    H    0.85944995    0.54616010    0.52342975    0.05620000
opls_146-232    H    0.96762997    0.52570988    0.95039945    0.05620000
opls_146-233    H    0.93444986    0.44843990    0.86510035    0.05620000
opls_146-234    H    0.90860005    0.09185987    0.28119048    0.05620000
opls_146-235    H    0.94330994    0.01411009    0.27029909    0.05620000
opls_146-236    H    0.88363997    0.99410995    0.53696970    0.05620000
opls_146-237    H    0.84982016    0.07306007    0.54474026    0.05620000
opls_144-238    H    0.92330994    0.60953001    0.45807950    0.03320000
opls_144-239    H    0.93392017    0.92520003    0.72447068    0.03320000
opls_146-240    H    0.97845986    0.65601998    0.62219992    0.05620000
opls_146-241    H    0.02077007    0.73290988    0.67249902    0.05620000
opls_146-242    H    0.08925011    0.71846991    0.96228060    0.05620000
opls_146-243    H    0.04827002    0.64603989    0.89629083    0.05620000
opls_146-244    H    0.02744995    0.79171985    0.91482094    0.05620000
opls_146-245    H    0.97032985    0.85837013    0.82897088    0.05620000
opls_146-246    H    0.99056987    0.91026011    0.56499016    0.05620000
opls_146-247    H    0.04715992    0.84327996    0.65192050    0.05620000
opls_144-248    H    0.11586999    0.78069002    0.40029909    0.05620000
opls_146-249    H    0.13279007    0.84034006    0.53886068    0.05620000
opls_146-250    H    0.17085990    0.76386985    0.57568083    0.05620000
opls_146-251    H    0.20554014    0.79319988    0.33877017    0.05620000
opls_146-252    H    0.17275007    0.87106986    0.29505903    0.05620000
opls_146-253    H    0.20546013    0.68705986    0.40247934    0.05620000
opls_146-254    H    0.17012983    0.60801003    0.47073987    0.05620000
opls_146-255    H    0.12873007    0.59910017    0.70877017    0.05620000
opls_146-256    H    0.16497009    0.67210014    0.62919913    0.05620000
opls_146-257    H    0.18049004    0.53188985    0.42312082    0.05620000
opls_146-258    H    0.14055005    0.45383990    0.52342975    0.05620000
opls_146-259    H    0.03237003    0.47429012    0.95039945    0.05620000
opls_146-260    H    0.06555014    0.55156010    0.86510035    0.05620000
opls_146-261    H    0.09139995    0.90814013    0.28119048    0.05620000
opls_146-262    H    0.05669006    0.98588991    0.27029909    0.05620000
opls_146-263    H    0.11636003    0.00589005    0.53696970    0.05620000
opls_146-264    H    0.15017984    0.92693993    0.54474026    0.05620000
opls_144-265    H    0.07669006    0.39046999    0.45807950    0.03320000
opls_144-266    H    0.06607983    0.07479997    0.72447068    0.03320000
opls_146-267    H    0.02154014    0.34398002    0.62219992    0.05620000
opls_146-268    H    0.97922993    0.26709012    0.67249902    0.05620000
opls_146-269    H    0.91074989    0.28153009    0.96228060    0.05620000
opls_146-270    H    0.95172998    0.35396011    0.89629083    0.05620000
opls_146-271    H    0.97255005    0.20828015    0.91482094    0.05620000
opls_146-272    H    0.02967015    0.14162987    0.82897088    0.05620000
opls_146-273    H    0.00943013    0.08973989    0.56499016    0.05620000
opls_146-274    H    0.95284008    0.15672004    0.65192050    0.05620000
opls_144-275    H    0.88413001    0.21930998    0.40029909    0.05620000
