#======================================================================
# Crystal Data Generated By AuToFF
#----------------------------------------------------------------------

data_AuToFF_phase_1

_cell_length_a                         28.6367
_cell_length_b                         28.6367
_cell_length_c                         3.6239
_cell_angle_alpha                      90.00
_cell_angle_beta                       90.00
_cell_angle_gamma                      120.00
_symmetry_space_group_name_H-M_alt     'P 1'
_symmetry_space_group_IT_number        1

loop_
_space_group_symop_operation_xyz
   'x, y, z'

loop_
   _atom_site_label
   _atom_site_type_symbol
   _atom_site_fract_x
   _atom_site_fract_y
   _atom_site_fract_z
   _atom_site_charge
opls_280-0    C    0.63179002    0.35731011    0.55747123    0.22900000
opls_145-1    C    0.69091001    0.39303011    0.60293882    -0.10810000
opls_142-2    C    0.71648007    0.44678995    0.66669886    0.04900000
opls_141-3    C    0.72287980    0.53426981    0.46332128    0.31810000
opls_916-4    C    0.64126005    0.54701007    0.41227131    0.17300000
opls_145-5    C    0.60646996    0.49545990    0.28387097    -0.11380000
opls_145-6    C    0.55090987    0.47645998    0.24904109    -0.12950000
opls_700-7    C    0.52958006    0.51005983    0.34370982    0.06590000
opls_145-8    C    0.56494991    0.56218985    0.47358923    -0.16200000
opls_700-9    C    0.62033006    0.58092000    0.50913933    0.08120000
opls_148-10    C    0.65630995    0.63647984    0.66252104    -0.43430000
opls_280-11    C    0.64268991    0.27447983    0.55747123    0.22910000
opls_145-12    C    0.60697015    0.29788013    0.60293882    -0.10810000
opls_142-13    C    0.55320986    0.26968993    0.66669886    0.04900000
opls_141-14    C    0.46573015    0.18861005    0.46332128    0.31810000
opls_916-15    C    0.45298984    0.09424999    0.41227131    0.17300000
opls_145-16    C    0.50453998    0.11100999    0.28387097    -0.11380000
opls_145-17    C    0.52354015    0.07445007    0.24904109    -0.12950000
opls_700-18    C    0.48994002    0.01952007    0.34370982    0.06590000
opls_145-19    C    0.43780986    0.00276007    0.47358923    -0.16200000
opls_700-20    C    0.41907988    0.03940991    0.50913933    0.08120000
opls_148-21    C    0.36352007    0.01983015    0.66252104    -0.43430000
opls_280-22    C    0.72552007    0.36821006    0.55747123    0.22900000
opls_145-23    C    0.70212005    0.30909016    0.60293882    -0.10810000
opls_142-24    C    0.73031006    0.28352011    0.66669886    0.04900000
opls_141-25    C    0.81139004    0.27712014    0.46332128    0.31800000
opls_916-26    C    0.90575011    0.35873994    0.41227131    0.17300000
opls_145-27    C    0.88899007    0.39353011    0.28387097    -0.11380000
opls_145-28    C    0.92554998    0.44908994    0.24904109    -0.12950000
opls_700-29    C    0.98047993    0.47042009    0.34370982    0.06590000
opls_145-30    C    0.99723988    0.43505009    0.47358923    -0.16200000
opls_700-31    C    0.96059006    0.37967009    0.50913933    0.08120000
opls_148-32    C    0.98016999    0.34369001    0.66252104    -0.43430000
opls_280-33    C    0.36820998    0.64268989    0.55747123    0.22900000
opls_145-34    C    0.30908999    0.60696989    0.60293882    -0.10810000
opls_142-35    C    0.28351993    0.55321005    0.66669886    0.04900000
opls_141-36    C    0.27712020    0.46573019    0.46332128    0.31800000
opls_916-37    C    0.35873995    0.45298993    0.41227131    0.17300000
opls_145-38    C    0.39353004    0.50454010    0.28387097    -0.11380000
opls_145-39    C    0.44909013    0.52354002    0.24904109    -0.12950000
opls_700-40    C    0.47041994    0.48994017    0.34370982    0.06590000
opls_145-41    C    0.43505009    0.43781015    0.47358923    -0.16200000
opls_700-42    C    0.37966994    0.41908000    0.50913933    0.08120000
opls_148-43    C    0.34369005    0.36352016    0.66252104    -0.43430000
opls_280-44    C    0.35731009    0.72552017    0.55747123    0.22900000
opls_145-45    C    0.39302985    0.70211987    0.60293882    -0.10810000
opls_142-46    C    0.44679014    0.73031007    0.66669886    0.04900000
opls_141-47    C    0.53426985    0.81138995    0.46332128    0.31800000
opls_916-48    C    0.54701016    0.90575001    0.41227131    0.17300000
opls_145-49    C    0.49546002    0.88899001    0.28387097    -0.11380000
opls_145-50    C    0.47645985    0.92554993    0.24904109    -0.12950000
opls_700-51    C    0.51005998    0.98047993    0.34370982    0.06590000
opls_145-52    C    0.56219014    0.99723993    0.47358923    -0.16200000
opls_700-53    C    0.58092012    0.96059009    0.50913933    0.08120000
opls_148-54    C    0.63647993    0.98016985    0.66252104    -0.43430000
opls_280-55    C    0.27447993    0.63178994    0.55747123    0.22900000
opls_145-56    C    0.29787995    0.69090984    0.60293882    -0.10810000
opls_142-57    C    0.26968994    0.71647989    0.66669886    0.04900000
opls_141-58    C    0.18860996    0.72287986    0.46332128    0.31800000
opls_916-59    C    0.09424989    0.64126006    0.41227131    0.17300000
opls_145-60    C    0.11100993    0.60646989    0.28387097    -0.11380000
opls_145-61    C    0.07445002    0.55091006    0.24904109    -0.12950000
opls_700-62    C    0.01952007    0.52957991    0.34370982    0.06590000
opls_145-63    C    0.00276012    0.56494991    0.47358923    -0.16190000
opls_700-64    C    0.03940994    0.62032991    0.50913933    0.08120000
opls_148-65    C    0.01983001    0.65630999    0.66252104    -0.43430000
opls_238-66    N    0.69378981    0.48214988    0.64571870    -0.37030000
opls_238-67    N    0.69825980    0.56713982    0.41666989    -0.39410000
opls_238-68    N    0.51785011    0.21164019    0.64571870    -0.37020000
opls_238-69    N    0.43285999    0.13111998    0.41666989    -0.39420000
opls_238-70    N    0.78836008    0.30620993    0.64571870    -0.37030000
opls_238-71    N    0.86888020    0.30174019    0.41666989    -0.39420000
opls_238-72    N    0.30621019    0.51785012    0.64571870    -0.37030000
opls_238-73    N    0.30174020    0.43286018    0.41666989    -0.39420000
opls_238-74    N    0.48214989    0.78835981    0.64571870    -0.37020000
opls_238-75    N    0.56714001    0.86888002    0.41666989    -0.39410000
opls_238-76    N    0.21163992    0.69379007    0.64571870    -0.37020000
opls_238-77    N    0.13111980    0.69825981    0.41666989    -0.39410000
opls_474-78    S    0.77941994    0.55786003    0.37424874    -0.20140000
opls_474-79    S    0.44214006    0.22155990    0.37424874    -0.20140000
opls_474-80    S    0.77844000    0.22058007    0.37424874    -0.20140000
opls_474-81    S    0.22058006    0.44213997    0.37424874    -0.20140000
opls_474-82    S    0.55785994    0.77844010    0.37424874    -0.20130000
opls_474-83    S    0.22156000    0.77941993    0.37424874    -0.20140000
opls_281-84    O    0.60284007    0.37493987    0.45481939    -0.37980000
opls_281-85    O    0.62505997    0.22790020    0.45481939    -0.37980000
opls_281-86    O    0.77209996    0.39715993    0.45481939    -0.37970000
opls_281-87    O    0.39715993    0.62506013    0.45481939    -0.37980000
opls_281-88    O    0.37494003    0.77209980    0.45481939    -0.37980000
opls_281-89    O    0.22790004    0.60284007    0.45481939    -0.37980000
opls_144-90    H    0.75931005    0.46588987    0.71490107    0.10260000
opls_910-91    H    0.65579005    0.47018985    0.75909103    0.27530000
opls_910-92    H    0.72365021    0.60720013    0.35186953    0.27420000
opls_146-93    H    0.62657978    0.46878986    0.23870968    0.03900000
opls_146-94    H    0.52513992    0.43554000    0.15159083    0.11790000
opls_146-95    H    0.54893999    0.58759981    0.56025001    0.12150000
opls_702-96    H    0.63253007    0.65181001    0.80775132    0.17550000
opls_702-97    H    0.67978999    0.66487003    0.43981070    0.13900000
opls_702-98    H    0.68469986    0.63447985    0.85999890    0.13160000
opls_144-99    H    0.53411012    0.29342007    0.71490107    0.10260000
opls_910-100    H    0.52980984    0.18559998    0.75909103    0.27530000
opls_910-101    H    0.39279981    0.11644989    0.35186953    0.27480000
opls_146-102    H    0.53121005    0.15779003    0.23870968    0.03900000
opls_146-103    H    0.56446009    0.08960001    0.15159083    0.11800000
opls_146-104    H    0.41239996    0.96134009    0.56025001    0.12150000
opls_702-105    H    0.34818991    0.98071984    0.80775132    0.17550000
opls_702-106    H    0.33513014    0.01492010    0.43981070    0.13910000
opls_702-107    H    0.36552000    0.05021994    0.85999890    0.13170000
opls_144-108    H    0.70658018    0.24069006    0.71490107    0.10260000
opls_910-109    H    0.81440011    0.34421017    0.75909103    0.27520000
opls_910-110    H    0.88354998    0.27634998    0.35186953    0.27480000
opls_146-111    H    0.84221017    0.37342012    0.23870968    0.03900000
opls_146-112    H    0.91040000    0.47485999    0.15159083    0.11790000
opls_146-113    H    0.03866005    0.45106010    0.56025001    0.12160000
opls_702-114    H    0.01928002    0.36747014    0.80775132    0.17550000
opls_702-115    H    0.98507988    0.32020987    0.43981070    0.13900000
opls_702-116    H    0.94977993    0.31529981    0.85999890    0.13160000
opls_144-117    H    0.24068995    0.53411013    0.71490107    0.10260000
opls_910-118    H    0.34420995    0.52981015    0.75909103    0.27530000
opls_910-119    H    0.27634979    0.39279987    0.35186953    0.27420000
opls_146-120    H    0.37342022    0.53121014    0.23870968    0.03900000
opls_146-121    H    0.47486008    0.56446000    0.15159083    0.11790000
opls_146-122    H    0.45106001    0.41240019    0.56025001    0.12150000
opls_702-123    H    0.36746993    0.34818999    0.80775132    0.17550000
opls_702-124    H    0.32021001    0.33512997    0.43981070    0.13910000
opls_702-125    H    0.31530014    0.36552015    0.85999890    0.13160000
opls_144-126    H    0.46588988    0.70657993    0.71490107    0.10260000
opls_910-127    H    0.47019016    0.81440002    0.75909103    0.27530000
opls_910-128    H    0.60720019    0.88355011    0.35186953    0.27480000
opls_146-129    H    0.46878995    0.84220997    0.23870968    0.03900000
opls_146-130    H    0.43553991    0.91039999    0.15159083    0.11800000
opls_146-131    H    0.58760004    0.03865991    0.56025001    0.12150000
opls_702-132    H    0.65181009    0.01928016    0.80775132    0.17550000
opls_702-133    H    0.66486986    0.98507990    0.43981070    0.13900000
opls_702-134    H    0.63448000    0.94978006    0.85999890    0.13160000
opls_144-135    H    0.29341982    0.75930994    0.71490107    0.10260000
opls_910-136    H    0.18559989    0.65578983    0.75909103    0.27530000
opls_910-137    H    0.11645002    0.72365002    0.35186953    0.27480000
opls_146-138    H    0.15778983    0.62657988    0.23870968    0.03900000
opls_146-139    H    0.08960000    0.52514001    0.15159083    0.11800000
opls_146-140    H    0.96133995    0.54893990    0.56025001    0.12150000
opls_702-141    H    0.98071998    0.63252986    0.80775132    0.17550000
opls_702-142    H    0.01492012    0.67979013    0.43981070    0.13900000
opls_702-143    H    0.05022007    0.68470019    0.85999890    0.13160000
