#======================================================================
# Crystal Data Generated By AuToFF
#----------------------------------------------------------------------

data_AuToFF_phase_1

_cell_length_a                         36.3403
_cell_length_b                         31.2994
_cell_length_c                         4.9440
_cell_angle_alpha                      90.00
_cell_angle_beta                       90.00
_cell_angle_gamma                      90.00
_symmetry_space_group_name_H-M_alt     'P 1'
_symmetry_space_group_IT_number        1

loop_
_space_group_symop_operation_xyz
   'x, y, z'

loop_
   _atom_site_label
   _atom_site_type_symbol
   _atom_site_fract_x
   _atom_site_fract_y
   _atom_site_fract_z
   _atom_site_charge
opls_145-0    C    0.43303000    0.47579986    0.48705097    -0.21950000
opls_700-1    C    0.46609989    0.45207991    0.48882079    0.00420000
opls_700-2    C    0.46606990    0.40654006    0.48155947    0.01820000
opls_145-3    C    0.93494990    0.97575001    0.62031958    -0.22070000
opls_700-4    C    0.96679994    0.95240995    0.54943972    -0.00140000
opls_700-5    C    0.96638993    0.90708001    0.52838997    0.02730000
opls_145-6    C    0.56694001    0.52036013    0.52126011    -0.21950000
opls_700-7    C    0.53391001    0.54402992    0.50730987    -0.00270000
opls_700-8    C    0.53397991    0.58955986    0.50176982    0.01660000
opls_145-9    C    0.06491003    0.02040998    0.37486044    -0.22060000
opls_700-10    C    0.03308008    0.04394014    0.44438916    -0.00330000
opls_700-11    C    0.03337012    0.08935986    0.45738066    0.01950000
opls_700-12    C    0.56606990    0.38110986    0.54192961    0.06560000
opls_145-13    C    0.59186991    0.38760008    0.75252023    -0.19550000
opls_145-14    C    0.62483001    0.36400985    0.76280947    -0.22770000
opls_916-15    C    0.63206000    0.33217985    0.56833940    0.17630000
opls_145-16    C    0.60567001    0.32400014    0.36673948    -0.22770000
opls_145-17    C    0.57317001    0.34816993    0.35300971    -0.19530000
opls_234-18    C    0.68744011    0.29668013    0.74074029    0.40410000
opls_700-19    C    0.71907992    0.27331003    0.66789037    0.00930000
opls_145-20    C    0.75260001    0.27902995    0.80908981    -0.19520000
opls_145-21    C    0.78428989    0.25594995    0.73664037    -0.19520000
opls_700-22    C    0.06638993    0.88285015    0.47659992    0.08030000
opls_145-23    C    0.09298988    0.89134009    0.67830906    -0.21960000
opls_145-24    C    0.12565004    0.86746008    0.69118932    -0.22770000
opls_916-25    C    0.13238003    0.83460002    0.50361044    0.17640000
opls_145-26    C    0.10585989    0.82561008    0.30329086    -0.22670000
opls_145-27    C    0.07310011    0.84956996    0.28963997    -0.19520000
opls_234-28    C    0.18695003    0.79699994    0.34648058    0.40410000
opls_700-29    C    0.21821009    0.77334997    0.42363066    0.00960000
opls_145-30    C    0.25203012    0.77865997    0.28591019    -0.19520000
opls_145-31    C    0.28339997    0.75540010    0.36277913    -0.19520000
opls_700-32    C    0.43376004    0.61496994    0.50237055    0.07010000
opls_145-33    C    0.40643996    0.60928005    0.70304005    -0.19520000
opls_145-34    C    0.37370990    0.63327987    0.69783981    -0.22770000
opls_916-35    C    0.36812987    0.66466003    0.49739078    0.17610000
opls_145-36    C    0.39577989    0.67157997    0.30312095    -0.22770000
opls_145-37    C    0.42817010    0.64703988    0.30495955    -0.19530000
opls_234-38    C    0.31325003    0.70219014    0.65683050    0.40410000
opls_700-39    C    0.28195007    0.72575992    0.57886934    0.00950000
opls_145-40    C    0.24810995    0.72044001    0.71647047    -0.19520000
opls_145-41    C    0.21675000    0.74376985    0.63996966    -0.19520000
opls_700-42    C    0.93426994    0.11413989    0.56370955    0.08280000
opls_145-43    C    0.90511994    0.10785990    0.37860032    -0.19530000
opls_145-44    C    0.87270001    0.13213991    0.39786003    -0.22770000
opls_916-45    C    0.86905997    0.16389004    0.59861044    0.17610000
opls_145-46    C    0.89809000    0.17031988    0.78282969    -0.22770000
opls_145-47    C    0.93044994    0.14578011    0.76575040    -0.19520000
opls_234-48    C    0.81495998    0.20294990    0.44497977    0.40410000
opls_700-49    C    0.78345005    0.22621999    0.52105987    0.00950000
opls_145-50    C    0.74990988    0.22040007    0.38040049    -0.19520000
opls_145-51    C    0.71824999    0.24344013    0.45284992    -0.19530000
opls_145-52    C    0.56697000    0.47579986    0.51294903    -0.21950000
opls_700-53    C    0.53390011    0.45207991    0.51117921    0.00420000
opls_700-54    C    0.53393010    0.40654006    0.51844053    0.01820000
opls_145-55    C    0.06505010    0.97575001    0.37968042    -0.22070000
opls_700-56    C    0.03320006    0.95240995    0.45056028    -0.00140000
opls_700-57    C    0.03361007    0.90708001    0.47161003    0.02730000
opls_145-58    C    0.43305999    0.52036013    0.47873989    -0.21950000
opls_700-59    C    0.46608999    0.54402992    0.49269013    -0.00270000
opls_700-60    C    0.46602009    0.58955986    0.49823018    0.01660000
opls_145-61    C    0.93508997    0.02040998    0.62513956    -0.22060000
opls_700-62    C    0.96691992    0.04394014    0.55561084    -0.00330000
opls_700-63    C    0.96662988    0.08935986    0.54261934    0.01950000
opls_700-64    C    0.43393010    0.38110986    0.45807039    0.06560000
opls_145-65    C    0.40813009    0.38760008    0.24747977    -0.19550000
opls_145-66    C    0.37516999    0.36400985    0.23719053    -0.22770000
opls_916-67    C    0.36794000    0.33217985    0.43166060    0.17630000
opls_145-68    C    0.39432999    0.32400014    0.63326052    -0.22770000
opls_145-69    C    0.42682999    0.34816993    0.64699029    -0.19530000
opls_234-70    C    0.31255989    0.29668013    0.25925971    0.40410000
opls_700-71    C    0.28092008    0.27331003    0.33210963    0.00930000
opls_145-72    C    0.24739999    0.27902995    0.19091019    -0.19520000
opls_145-73    C    0.21571011    0.25594995    0.26335963    -0.19520000
opls_700-74    C    0.93361007    0.88285015    0.52340008    0.08030000
opls_145-75    C    0.90701012    0.89134009    0.32169094    -0.21960000
opls_145-76    C    0.87434996    0.86746008    0.30881068    -0.22770000
opls_916-77    C    0.86761997    0.83460002    0.49638956    0.17640000
opls_145-78    C    0.89414011    0.82561008    0.69670914    -0.22670000
opls_145-79    C    0.92689989    0.84956996    0.71036003    -0.19520000
opls_234-80    C    0.81304997    0.79699994    0.65351942    0.40410000
opls_700-81    C    0.78178991    0.77334997    0.57636934    0.00960000
opls_145-82    C    0.74796988    0.77865997    0.71408981    -0.19520000
opls_145-83    C    0.71660003    0.75540010    0.63722087    -0.19520000
opls_700-84    C    0.56623996    0.61496994    0.49762945    0.07010000
opls_145-85    C    0.59356004    0.60928005    0.29695995    -0.19520000
opls_145-86    C    0.62629010    0.63327987    0.30216019    -0.22770000
opls_916-87    C    0.63187013    0.66466003    0.50260922    0.17610000
opls_145-88    C    0.60422011    0.67157997    0.69687905    -0.22770000
opls_145-89    C    0.57182990    0.64703988    0.69504045    -0.19530000
opls_234-90    C    0.68674997    0.70219014    0.34316950    0.40410000
opls_700-91    C    0.71804993    0.72575992    0.42113066    0.00950000
opls_145-92    C    0.75189005    0.72044001    0.28352953    -0.19520000
opls_145-93    C    0.78325000    0.74376985    0.36003034    -0.19520000
opls_700-94    C    0.06573006    0.11413989    0.43629045    0.08280000
opls_145-95    C    0.09488006    0.10785990    0.62139968    -0.19530000
opls_145-96    C    0.12729999    0.13213991    0.60213997    -0.22770000
opls_916-97    C    0.13094003    0.16389004    0.40138956    0.17610000
opls_145-98    C    0.10191000    0.17031988    0.21717031    -0.22770000
opls_145-99    C    0.06955006    0.14578011    0.23424960    -0.19520000
opls_234-100    C    0.18504002    0.20294990    0.55502023    0.40410000
opls_700-101    C    0.21654995    0.22621999    0.47894013    0.00950000
opls_145-102    C    0.25009012    0.22040007    0.61959951    -0.19520000
opls_145-103    C    0.28175001    0.24344013    0.54715008    -0.19530000
opls_700-104    C    0.50000000    0.47511007    0.50000000    -0.00120000
opls_145-105    C    0.50000000    0.38493997    0.50000000    -0.10170000
opls_700-106    C    0.50000000    0.52098986    0.50000000    -0.00270000
opls_145-107    C    0.50000000    0.61122993    0.50000000    -0.10170000
opls_700-108    C    0.00000000    0.97535001    0.50000000    0.00130000
opls_145-109    C    0.00000000    0.88510003    0.50000000    -0.10170000
opls_700-110    C    0.00000000    0.02106015    0.50000000    0.00090000
opls_145-111    C    0.00000000    0.11125996    0.50000000    -0.10170000
opls_238-112    N    0.66365990    0.30978996    0.54904935    -0.40920000
opls_238-113    N    0.16391004    0.81251014    0.53578074    -0.40930000
opls_238-114    N    0.33703987    0.68778986    0.46869943    -0.40840000
opls_238-115    N    0.83847987    0.18778986    0.63278924    -0.40770000
opls_238-116    N    0.33634010    0.30978996    0.45095065    -0.40920000
opls_238-117    N    0.83608996    0.81251014    0.46421926    -0.40930000
opls_238-118    N    0.66296013    0.68778986    0.53130057    -0.40840000
opls_238-119    N    0.16152013    0.18778986    0.36721076    -0.40770000
opls_236-120    O    0.82098001    0.19696991    0.19852953    -0.58940000
opls_236-121    O    0.31886996    0.69542004    0.90287015    -0.59170000
opls_236-122    O    0.18155987    0.80505984    0.10168083    -0.59130000
opls_236-123    O    0.68149988    0.30440999    0.98501011    -0.52380000
opls_236-124    O    0.17901999    0.19696991    0.80147047    -0.58940000
opls_236-125    O    0.68113004    0.69542004    0.09712985    -0.59170000
opls_236-126    O    0.81844013    0.80505984    0.89831917    -0.59130000
opls_236-127    O    0.31850012    0.30440999    0.01498989    -0.52380000
opls_146-128    H    0.40795013    0.46114015    0.49209951    0.20830000
opls_146-129    H    0.91104999    0.96048998    0.67145024    0.20830000
opls_146-130    H    0.59189990    0.53506010    0.53797937    0.20830000
opls_146-131    H    0.08868997    0.03544988    0.31868932    0.20830000
opls_146-132    H    0.58698993    0.41009987    0.89877023    0.20830000
opls_146-133    H    0.64363998    0.37068985    0.91033981    0.20830000
opls_146-134    H    0.61010999    0.30066998    0.22528924    0.20830000
opls_146-135    H    0.55488012    0.34187013    0.20041060    0.20830000
opls_241-136    H    0.67044989    0.30256011    0.36722087    0.24970000
opls_146-137    H    0.75422988    0.30033004    0.96625000    0.20830000
opls_146-138    H    0.80810010    0.26144016    0.84200040    0.20830000
opls_146-139    H    0.08862998    0.91486003    0.81889968    0.20830000
opls_146-140    H    0.14448010    0.87421005    0.83921926    0.20830000
opls_146-141    H    0.11013008    0.80140993    0.16816950    0.20830000
opls_146-142    H    0.05421006    0.84264011    0.14227953    0.20840000
opls_241-143    H    0.17170992    0.80871998    0.71969053    0.24970000
opls_146-144    H    0.25412008    0.79980990    0.12818972    0.20830000
opls_146-145    H    0.30743995    0.76066985    0.25976942    0.20830000
opls_146-146    H    0.41007999    0.58717995    0.85359021    0.20830000
opls_146-147    H    0.35389003    0.62728008    0.83926982    0.20830000
opls_146-148    H    0.39241008    0.69438008    0.15664037    0.20830000
opls_146-149    H    0.44752988    0.65247002    0.15831917    0.20830000
opls_241-150    H    0.33077988    0.69469990    0.28512945    0.24970000
opls_146-151    H    0.24601998    0.69927986    0.87416060    0.20830000
opls_146-152    H    0.19271002    0.73865985    0.74342031    0.20830000
opls_146-153    H    0.90729988    0.08544988    0.22832929    0.20830000
opls_146-154    H    0.85172990    0.12621009    0.26560073    0.20830000
opls_146-155    H    0.89582997    0.19292990    0.93150081    0.20830000
opls_146-156    H    0.95112011    0.15094986    0.90282969    0.20830000
opls_241-157    H    0.83255009    0.19465006    0.81697006    0.24970000
opls_146-158    H    0.74825992    0.19909008    0.22324029    0.20830000
opls_146-159    H    0.69448986    0.23784993    0.34716019    0.20830000
opls_146-160    H    0.59204987    0.46114015    0.50790049    0.20830000
opls_146-161    H    0.08895001    0.96048998    0.32854976    0.20830000
opls_146-162    H    0.40810010    0.53506010    0.46202063    0.20830000
opls_146-163    H    0.91131003    0.03544988    0.68131068    0.20830000
opls_146-164    H    0.41301007    0.41009987    0.10122977    0.20830000
opls_146-165    H    0.35636002    0.37068985    0.08966019    0.20830000
opls_146-166    H    0.38989001    0.30066998    0.77471076    0.20830000
opls_146-167    H    0.44511988    0.34187013    0.79958940    0.20830000
opls_241-168    H    0.32955011    0.30256011    0.63277913    0.24970000
opls_146-169    H    0.24577012    0.30033004    0.03375000    0.20830000
opls_146-170    H    0.19189990    0.26144016    0.15799960    0.20830000
opls_146-171    H    0.91137002    0.91486003    0.18110032    0.20830000
opls_146-172    H    0.85551990    0.87421005    0.16078074    0.20830000
opls_146-173    H    0.88986992    0.80140993    0.83183050    0.20830000
opls_146-174    H    0.94578994    0.84264011    0.85772047    0.20830000
opls_241-175    H    0.82829008    0.80871998    0.28030947    0.24970000
opls_146-176    H    0.74587992    0.79980990    0.87181028    0.20830000
opls_146-177    H    0.69256005    0.76066985    0.74023058    0.20830000
opls_146-178    H    0.58992001    0.58717995    0.14640979    0.20830000
opls_146-179    H    0.64610997    0.62728008    0.16073018    0.20830000
opls_146-180    H    0.60758992    0.69438008    0.84335963    0.20830000
opls_146-181    H    0.55247012    0.65247002    0.84168083    0.20830000
opls_241-182    H    0.66922012    0.69469990    0.71487055    0.24970000
opls_146-183    H    0.75398002    0.69927986    0.12583940    0.20830000
opls_146-184    H    0.80728998    0.73865985    0.25657969    0.20830000
opls_146-185    H    0.09270012    0.08544988    0.77167071    0.20830000
opls_146-186    H    0.14827010    0.12621009    0.73439927    0.20830000
opls_146-187    H    0.10417003    0.19292990    0.06849919    0.20830000
opls_146-188    H    0.04887989    0.15094986    0.09717031    0.20830000
opls_241-189    H    0.16744991    0.19465006    0.18302994    0.24970000
opls_146-190    H    0.25174008    0.19909008    0.77675971    0.20830000
opls_146-191    H    0.30551014    0.23784993    0.65283981    0.20830000
opls_146-192    H    0.50000000    0.35214988    0.50000000    0.20830000
opls_146-193    H    0.50000000    0.64404014    0.50000000    0.20830000
opls_146-194    H    0.00000000    0.85230995    0.50000000    0.20830000
opls_146-195    H    0.00000000    0.14405995    0.50000000    0.20830000
