#======================================================================
# Crystal Data Generated By AuToFF
#----------------------------------------------------------------------

data_AuToFF_phase_1

_cell_length_a                         18.3800
_cell_length_b                         17.5600
_cell_length_c                         3.3900
_cell_angle_alpha                      89.50
_cell_angle_beta                       90.38
_cell_angle_gamma                      119.91
_symmetry_space_group_name_H-M_alt     'P 1'
_symmetry_space_group_IT_number        1

loop_
_space_group_symop_operation_xyz
   'x, y, z'

loop_
   _atom_site_label
   _atom_site_type_symbol
   _atom_site_fract_x
   _atom_site_fract_y
   _atom_site_fract_z
   _atom_site_charge
opls_281-0    O    0.22808025    0.53994038    0.48278985    -0.30290000
opls_281-1    O    0.46920977    0.81445029    0.48209071    -0.39900000
opls_281-2    O    0.19469988    0.78106979    0.48258925    -0.40240000
opls_238-3    N    0.38115985    0.56197981    0.48250075    -0.20130000
opls_238-4    N    0.44976973    0.94937019    0.48209071    -0.22470000
opls_238-5    N    0.06365989    0.62798979    0.48297865    -0.19460000
opls_280-6    C    0.26054010    0.61917030    0.48265120    0.33940000
opls_145-7    C    0.35200009    0.67554008    0.48243880    -0.07550000
opls_142-8    C    0.40576996    0.64341979    0.48237980    0.13150000
opls_280-9    C    0.38998027    0.76768034    0.48227065    0.33700000
opls_145-10    C    0.33360983    0.80277018    0.48232965    -0.08350000
opls_142-11    C    0.36573964    0.88865990    0.48219100    0.05600000
opls_280-12    C    0.24147988    0.74860982    0.48255090    0.33760000
opls_700-13    C    0.20639012    0.65716006    0.48270135    -0.08570000
opls_142-14    C    0.12048959    0.60338996    0.48291080    0.13020000
opls_145-15    C    0.68640005    0.34918005    0.47275109    -0.10720000
opls_145-16    C    0.67353002    0.46712020    0.48935059    -0.10930000
opls_145-17    C    0.72016995    0.43167033    0.48599057    0.03190000
opls_145-18    C    0.55564959    0.33616986    0.48409964    -0.10950000
opls_145-19    C    0.60365011    0.30251001    0.48091957    0.04920000
opls_145-20    C    0.59154005    0.41866996    0.48132076    0.03760000
opls_145-21    C    0.80217019    0.47890031    0.49373130    0.04670000
opls_145-22    C    0.84124007    0.56468019    0.50784103    -0.14530000
opls_145-23    C    0.92729986    0.61243030    0.52893925    -0.16280000
opls_916-24    C    0.97792959    0.57679994    0.53772132    0.24020000
opls_145-25    C    0.93763974    0.49049992    0.52677987    -0.16870000
opls_145-26    C    0.85231977    0.44117996    0.49694973    -0.10240000
opls_145-27    C    0.56486973    0.21304998    0.48125881    0.04210000
opls_145-28    C    0.47939985    0.16273016    0.49056008    -0.14520000
opls_145-29    C    0.44313004    0.07678984    0.50580850    -0.14620000
opls_916-30    C    0.49039026    0.03747039    0.51328078    0.24130000
opls_145-31    C    0.57619972    0.08898009    0.50721859    -0.14710000
opls_145-32    C    0.61431006    0.17456002    0.48327070    -0.11230000
opls_145-33    C    0.53658982    0.45579993    0.48358929    0.08680000
opls_145-34    C    0.44972002    0.40528995    0.47752120    -0.10240000
opls_145-35    C    0.39969982    0.44168999    0.46801048    -0.16860000
opls_145-36    C    0.57042983    0.54236043    0.47589871    -0.11220000
opls_145-37    C    0.51779029    0.57578036    0.46642044    -0.13870000
opls_916-38    C    0.43253009    0.52655041    0.46019010    0.23870000
opls_144-39    H    0.47850028    0.69417036    0.48220870    0.02300000
opls_910-40    H    0.31049987    0.51260013    0.50264908    0.27100000
opls_144-41    H    0.31354011    0.90871030    0.48215856    0.02340000
opls_910-42    H    0.50050967    0.93008991    0.45229007    0.27490000
opls_144-43    H    0.09851972    0.53066021    0.48302880    0.03550000
opls_910-44    H    0.08435970    0.69789991    0.43415952    0.28190000
opls_146-45    H    0.41862012    0.33102020    0.48050952    0.04910000
opls_146-46    H    0.32541008    0.39869025    0.46644109    0.04380000
opls_146-47    H    0.64443986    0.58745000    0.47747990    0.04380000
opls_146-48    H    0.54651986    0.64976037    0.46344982    0.05060000
opls_146-49    H    0.80075006    0.59869041    0.50190863    0.04510000
opls_146-50    H    0.96035997    0.68682995    0.54024060    0.04910000
opls_146-51    H    0.97716999    0.45557003    0.54348852    0.04510000
opls_146-52    H    0.82062009    0.36702006    0.47388093    0.04910000
opls_146-53    H    0.43566989    0.19320005    0.48548023    0.04520000
opls_146-54    H    0.36884996    0.03388041    0.51298874    0.04380000
opls_146-55    H    0.62073017    0.05950031    0.52313075    0.04510000
opls_146-56    H    0.68859981    0.21625013    0.46426991    0.04380000
opls_146-57    H    0.73021015    0.31891998    0.45406005    0.04510000
opls_146-58    H    0.70563000    0.54146043    0.49945130    0.04910000
opls_146-59    H    0.48143983    0.29254041    0.48937124    0.04380000
