#======================================================================
# Crystal Data Generated By AuToFF
#----------------------------------------------------------------------

data_AuToFF_phase_1

_cell_length_a                         34.7109
_cell_length_b                         34.7109
_cell_length_c                         3.4396
_cell_angle_alpha                      90.00
_cell_angle_beta                       90.00
_cell_angle_gamma                      120.00
_symmetry_space_group_name_H-M_alt     'P 1'
_symmetry_space_group_IT_number        1

loop_
_space_group_symop_operation_xyz
   'x, y, z'

loop_
   _atom_site_label
   _atom_site_type_symbol
   _atom_site_fract_x
   _atom_site_fract_y
   _atom_site_fract_z
   _atom_site_charge
opls_281-0    O    0.30476004    0.57877009    0.00000000    -0.33880000
opls_281-1    O    0.70496005    0.42269994    0.00000000    -0.33890000
opls_281-2    O    0.42123007    0.72599010    0.00000000    -0.33880000
opls_281-3    O    0.57729987    0.28225992    0.00000000    -0.33890000
opls_281-4    O    0.27401005    0.69524014    0.00000000    -0.33880000
opls_281-5    O    0.71774009    0.29504014    0.00000000    -0.33890000
opls_238-6    N    0.39341992    0.59521991    0.00000000    -0.32540000
opls_238-7    N    0.62128998    0.41739997    0.00000000    -0.32650000
opls_750-8    N    0.51598009    0.53026994    0.00000000    -0.15330000
opls_262-9    N    0.51546980    0.69717989    0.00000000    -0.28100000
opls_750-10    N    0.50125001    0.48459009    0.00000000    -0.15330000
opls_238-11    N    0.40478011    0.79820010    0.00000000    -0.32540000
opls_238-12    N    0.58260008    0.20389002    0.00000000    -0.32680000
opls_750-13    N    0.46973007    0.98571016    0.00000000    -0.15330000
opls_262-14    N    0.30281985    0.81828990    0.00000000    -0.28100000
opls_750-15    N    0.51540994    0.01666006    0.00000000    -0.15330000
opls_238-16    N    0.20179997    0.60657999    0.00000000    -0.32540000
opls_238-17    N    0.79610995    0.37871002    0.00000000    -0.32650000
opls_750-18    N    0.01428984    0.48401990    0.00000000    -0.15330000
opls_262-19    N    0.18170990    0.48452988    0.00000000    -0.28100000
opls_750-20    N    0.98334005    0.49874986    0.00000000    -0.15330000
opls_280-21    C    0.31801005    0.61849995    0.00000000    0.29760000
opls_142-22    C    0.39957994    0.63963997    0.00000000    0.04530000
opls_916-23    C    0.42707009    0.58179000    0.00000000    0.22610000
opls_700-24    C    0.47432011    0.61082011    0.00000000    -0.02780000
opls_145-25    C    0.50262005    0.59275987    0.00000000    -0.16870000
opls_145-26    C    0.48574000    0.54694995    0.00000000    0.16320000
opls_145-27    C    0.43977993    0.51834998    0.00000000    -0.16710000
opls_145-28    C    0.41110997    0.53553997    0.00000000    -0.16340000
opls_700-29    C    0.36691018    0.65098009    0.00000000    -0.12640000
opls_261-30    C    0.49665003    0.65865993    0.00000000    0.25340000
opls_280-31    C    0.68736006    0.38235001    0.00000000    0.28670000
opls_142-32    C    0.60924020    0.37103018    0.00000000    0.06350000
opls_916-33    C    0.58986999    0.43327993    0.00000000    0.18410000
opls_145-34    C    0.54329015    0.40464004    0.00000000    -0.16360000
opls_145-35    C    0.51462009    0.42201998    0.00000000    -0.16250000
opls_145-36    C    0.53152005    0.46794001    0.00000000    0.17370000
opls_145-37    C    0.57767009    0.49669001    0.00000000    -0.16030000
opls_145-38    C    0.60644012    0.47948006    0.00000000    -0.16060000
opls_700-39    C    0.63775984    0.35447990    0.00000000    -0.14610000
opls_280-40    C    0.38150017    0.69951019    0.00000000    0.29760000
opls_142-41    C    0.36036000    0.75993995    0.00000000    0.04530000
opls_916-42    C    0.41821004    0.84528012    0.00000000    0.22610000
opls_700-43    C    0.38918010    0.86350003    0.00000000    -0.02780000
opls_145-44    C    0.40724017    0.90986018    0.00000000    -0.16870000
opls_145-45    C    0.45305006    0.93879015    0.00000000    0.16320000
opls_145-46    C    0.48165001    0.92143017    0.00000000    -0.16710000
opls_145-47    C    0.46445991    0.87557002    0.00000000    -0.16340000
opls_700-48    C    0.34902000    0.71593006    0.00000000    -0.12640000
opls_261-49    C    0.34134022    0.83799016    0.00000000    0.25340000
opls_280-50    C    0.61764997    0.30501003    0.00000000    0.28670000
opls_142-51    C    0.62896997    0.23821012    0.00000000    0.06350000
opls_916-52    C    0.56672001    0.15659011    0.00000000    0.18420000
opls_145-53    C    0.59536003    0.13864996    0.00000000    -0.16350000
opls_145-54    C    0.57797989    0.09259986    0.00000000    -0.16250000
opls_145-55    C    0.53205998    0.06358007    0.00000000    0.17370000
opls_145-56    C    0.50331002    0.08097997    0.00000000    -0.16040000
opls_145-57    C    0.52051995    0.12695988    0.00000000    -0.16060000
opls_700-58    C    0.64551998    0.28327986    0.00000000    -0.14620000
opls_280-59    C    0.30049008    0.68198987    0.00000000    0.29770000
opls_142-60    C    0.24006006    0.60042009    0.00000000    0.04530000
opls_916-61    C    0.15471987    0.57292988    0.00000000    0.22610000
opls_700-62    C    0.13649979    0.52567986    0.00000000    -0.02780000
opls_145-63    C    0.09014007    0.49737995    0.00000000    -0.16870000
opls_145-64    C    0.06120994    0.51425990    0.00000000    0.16320000
opls_145-65    C    0.07857023    0.56022018    0.00000000    -0.16700000
opls_145-66    C    0.12443011    0.58889001    0.00000000    -0.16340000
opls_700-67    C    0.28406999    0.63309018    0.00000000    -0.12640000
opls_261-68    C    0.16201004    0.50334991    0.00000000    0.25340000
opls_280-69    C    0.69498997    0.31263997    0.00000000    0.28670000
opls_142-70    C    0.76179000    0.39076004    0.00000000    0.06350000
opls_916-71    C    0.84341000    0.41012996    0.00000000    0.18410000
opls_145-72    C    0.86135011    0.45671000    0.00000000    -0.16360000
opls_145-73    C    0.90740001    0.48538016    0.00000000    -0.16240000
opls_145-74    C    0.93641997    0.46847992    0.00000000    0.17370000
opls_145-75    C    0.91901989    0.42233002    0.00000000    -0.16040000
opls_145-76    C    0.87303994    0.39356006    0.00000000    -0.16060000
opls_700-77    C    0.71672001    0.36223991    0.00000000    -0.14620000
opls_144-78    H    0.43279004    0.66656997    0.00000000    0.12620000
opls_910-79    H    0.36144007    0.56829988    0.00000000    0.28020000
opls_146-80    H    0.37570004    0.51215016    0.00000000    0.12410000
opls_146-81    H    0.53843017    0.61458019    0.00000000    0.11790000
opls_146-82    H    0.42587990    0.48264002    0.00000000    0.12650000
opls_144-83    H    0.57427996    0.34717996    0.00000000    0.11060000
opls_146-84    H    0.52807995    0.36897000    0.00000000    0.11640000
opls_910-85    H    0.65425009    0.44253992    0.00000000    0.29560000
opls_146-86    H    0.64195014    0.50242012    0.00000000    0.12380000
opls_146-87    H    0.47900005    0.39955995    0.00000000    0.12230000
opls_146-88    H    0.59154986    0.53238999    0.00000000    0.12670000
opls_144-89    H    0.33342990    0.76621995    0.00000000    0.12620000
opls_910-90    H    0.43169987    0.79313997    0.00000000    0.28020000
opls_146-91    H    0.48784986    0.86354993    0.00000000    0.12410000
opls_146-92    H    0.38541990    0.92384995    0.00000000    0.11790000
opls_146-93    H    0.51736018    0.94324017    0.00000000    0.12650000
opls_144-94    H    0.65282002    0.22709986    0.00000000    0.11060000
opls_146-95    H    0.63102991    0.15911002    0.00000000    0.11640000
opls_910-96    H    0.55746007    0.21170991    0.00000000    0.29560000
opls_146-97    H    0.49757982    0.13952986    0.00000000    0.12380000
opls_146-98    H    0.60044016    0.07944008    0.00000000    0.12230000
opls_146-99    H    0.46761012    0.05915999    0.00000000    0.12670000
opls_144-100    H    0.23378006    0.56721008    0.00000000    0.12620000
opls_910-101    H    0.20686005    0.63856014    0.00000000    0.28020000
opls_146-102    H    0.13644982    0.62429991    0.00000000    0.12410000
opls_146-103    H    0.07614993    0.46156986    0.00000000    0.11790000
opls_146-104    H    0.05676008    0.57412014    0.00000000    0.12650000
opls_144-105    H    0.77290002    0.42572018    0.00000000    0.11060000
opls_146-106    H    0.84088985    0.47191998    0.00000000    0.11640000
opls_910-107    H    0.78829013    0.34575017    0.00000000    0.29560000
opls_146-108    H    0.86047004    0.35805003    0.00000000    0.12380000
opls_146-109    H    0.92056008    0.52099997    0.00000000    0.12190000
opls_146-110    H    0.94084002    0.40845002    0.00000000    0.12670000
