#======================================================================
# Crystal Data Generated By AuToFF
#----------------------------------------------------------------------

data_AuToFF_phase_1

_cell_length_a                         23.6000
_cell_length_b                         23.6000
_cell_length_c                         4.0224
_cell_angle_alpha                      90.00
_cell_angle_beta                       90.00
_cell_angle_gamma                      120.00
_symmetry_space_group_name_H-M_alt     'P 1'
_symmetry_space_group_IT_number        1

loop_
_space_group_symop_operation_xyz
   'x, y, z'

loop_
   _atom_site_label
   _atom_site_type_symbol
   _atom_site_fract_x
   _atom_site_fract_y
   _atom_site_fract_z
   _atom_site_charge
opls_750-0    N    0.45450002    0.98708986    0.07352078    -0.20250000
opls_520-1    N    0.60110010    0.30794003    0.04622116    -0.35910000
opls_750-2    N    0.01291011    0.46741005    0.07352078    -0.20250000
opls_520-3    N    0.69206002    0.29315987    0.04622116    -0.35910000
opls_750-4    N    0.53258988    0.54550009    0.07352078    -0.20250000
opls_520-5    N    0.70683988    0.39890010    0.04622116    -0.35910000
opls_239-6    N    0.33332980    0.66666977    0.91533910    -0.12010000
opls_142-7    C    0.47167979    0.94762993    0.94140066    0.03430000
opls_700-8    C    0.43453991    0.87733998    0.93550119    0.06200000
opls_145-9    C    0.37303991    0.84068998    0.08777098    -0.07280000
opls_145-10    C    0.34023992    0.77227985    0.07868934    -0.13090000
opls_916-11    C    0.36727991    0.73820982    0.91859089    0.22600000
opls_145-12    C    0.42864017    0.77581000    0.76503083    -0.13090000
opls_145-13    C    0.46170004    0.84420008    0.77405032    -0.08940000
opls_145-14    C    0.55989992    0.50127017    0.06153043    0.24260000
opls_145-15    C    0.52377001    0.43779002    0.92969123    -0.13050000
opls_523-16    C    0.55005977    0.39623988    0.92569113    -0.07280000
opls_700-17    C    0.61331007    0.41770997    0.04922932    0.00000000
opls_523-18    C    0.64962007    0.48144015    0.17783910    -0.07280000
opls_145-19    C    0.62294987    0.52264974    0.18594123    -0.13060000
opls_531-20    C    0.64112987    0.37373007    0.04609934    0.43180000
opls_142-21    C    0.05236995    0.52405006    0.94140066    0.03440000
opls_700-22    C    0.12266005    0.55719975    0.93550119    0.06200000
opls_145-23    C    0.15931027    0.53235021    0.08777098    -0.07270000
opls_145-24    C    0.22771983    0.56796000    0.07868934    -0.13090000
opls_916-25    C    0.26179012    0.62907007    0.91859089    0.22600000
opls_145-26    C    0.22419000    0.65282999    0.76503083    -0.13090000
opls_145-27    C    0.15580004    0.61750007    0.77405032    -0.08940000
opls_145-28    C    0.49872979    0.05862992    0.06153043    0.24260000
opls_145-29    C    0.56221000    0.08598017    0.92969123    -0.13030000
opls_523-30    C    0.60375990    0.15381981    0.92569113    -0.07280000
opls_700-31    C    0.58228978    0.19559991    0.04922932    0.00000000
opls_523-32    C    0.51856000    0.16818017    0.17783910    -0.07280000
opls_145-33    C    0.47734996    0.10029993    0.18594123    -0.13060000
opls_531-34    C    0.62626980    0.26739977    0.04609934    0.43190000
opls_142-35    C    0.47594983    0.52832001    0.94140066    0.03430000
opls_700-36    C    0.44279980    0.56545978    0.93550119    0.06210000
opls_145-37    C    0.46764982    0.62695981    0.08777098    -0.07280000
opls_145-38    C    0.43204025    0.65976016    0.07868934    -0.13090000
opls_916-39    C    0.37092997    0.63272010    0.91859089    0.22570000
opls_145-40    C    0.34716983    0.57136000    0.76503083    -0.13090000
opls_145-41    C    0.38249993    0.53829985    0.77405032    -0.08930000
opls_145-42    C    0.94136987    0.44009991    0.06153043    0.24260000
opls_145-43    C    0.91401999    0.47622980    0.92969123    -0.13050000
opls_523-44    C    0.84618008    0.44993982    0.92569113    -0.07280000
opls_700-45    C    0.80440014    0.38669012    0.04922932    0.00000000
opls_523-46    C    0.83182017    0.35038017    0.17783910    -0.07280000
opls_145-47    C    0.89969992    0.37704984    0.18594123    -0.13060000
opls_531-48    C    0.73259991    0.35887015    0.04609934    0.43180000
opls_146-49    H    0.34966991    0.86668983    0.21942124    0.05070000
opls_146-50    H    0.29037987    0.74276991    0.20286893    0.05070000
opls_146-51    H    0.45239984    0.75057001    0.62969123    0.05070000
opls_146-52    H    0.51144017    0.87352017    0.64852078    0.05070000
opls_146-53    H    0.47267980    0.41987993    0.82509944    0.05070000
opls_526-54    H    0.52015001    0.34456019    0.82174075    0.05070000
opls_526-55    H    0.70120998    0.49988013    0.27653888    0.05070000
opls_146-56    H    0.65247997    0.57400994    0.29416020    0.05070000
opls_144-57    H    0.52111979    0.96819974    0.81249006    0.02990000
opls_146-58    H    0.13330987    0.48297991    0.21942124    0.05070000
opls_146-59    H    0.25722993    0.54760987    0.20286893    0.05070000
opls_146-60    H    0.24942978    0.70182991    0.62969123    0.05070000
opls_146-61    H    0.12648000    0.63792017    0.64852078    0.05070000
opls_146-62    H    0.58011980    0.05280993    0.82509944    0.05070000
opls_526-63    H    0.65543983    0.17558983    0.82174075    0.05070000
opls_526-64    H    0.50012002    0.20132986    0.27653888    0.05070000
opls_146-65    H    0.42599019    0.07847022    0.29416020    0.05070000
opls_144-66    H    0.03179984    0.55292002    0.81249006    0.02990000
opls_146-67    H    0.51701997    0.65032977    0.21942124    0.05070000
opls_146-68    H    0.45239020    0.70962022    0.20286893    0.05070000
opls_146-69    H    0.29816996    0.54760008    0.62969123    0.05070000
opls_146-70    H    0.36208007    0.48856015    0.64852078    0.05070000
opls_146-71    H    0.94719005    0.52731992    0.82509944    0.05070000
opls_526-72    H    0.82441016    0.47984999    0.82174075    0.05070000
opls_526-73    H    0.79867001    0.29879001    0.27653888    0.05070000
opls_146-74    H    0.92152984    0.34751984    0.29416020    0.05070000
opls_144-75    H    0.44707970    0.47887974    0.81249006    0.02990000
