#======================================================================
# Crystal Data Generated By AuToFF
#----------------------------------------------------------------------

data_AuToFF_phase_1

_cell_length_a                         18.7567
_cell_length_b                         18.7567
_cell_length_c                         25.0000
_cell_angle_alpha                      90.00
_cell_angle_beta                       90.00
_cell_angle_gamma                      90.00
_symmetry_space_group_name_H-M_alt     'P 1'
_symmetry_space_group_IT_number        1

loop_
_space_group_symop_operation_xyz
   'x, y, z'

loop_
   _atom_site_label
   _atom_site_type_symbol
   _atom_site_fract_x
   _atom_site_fract_y
   _atom_site_fract_z
   _atom_site_charge
opls_146-0    H    0.12895019    0.72152991    0.50000000    0.07430000
opls_146-1    H    0.25621991    0.31349011    0.50000000    0.11890000
opls_146-2    H    0.87104981    0.27847009    0.50000000    0.07430000
opls_146-3    H    0.74378009    0.68650989    0.50000000    0.11890000
opls_146-4    H    0.27847009    0.12895019    0.50000000    0.07430000
opls_146-5    H    0.68650989    0.25621991    0.50000000    0.11890000
opls_146-6    H    0.72152991    0.87104981    0.50000000    0.07430000
opls_146-7    H    0.31349011    0.74378009    0.50000000    0.11890000
opls_146-8    H    0.37104981    0.22152991    0.50000000    0.07430000
opls_146-9    H    0.24378009    0.81349011    0.50000000    0.11890000
opls_146-10    H    0.62895019    0.77847009    0.50000000    0.07430000
opls_146-11    H    0.75621991    0.18650989    0.50000000    0.11890000
opls_146-12    H    0.22152991    0.62895019    0.50000000    0.07430000
opls_146-13    H    0.81349011    0.75621991    0.50000000    0.11890000
opls_146-14    H    0.77847009    0.37104981    0.50000000    0.07430000
opls_146-15    H    0.18650989    0.24378009    0.50000000    0.11890000
opls_543-16    C    0.53056988    0.65860999    0.50000000    0.35810000
opls_700-17    C    0.71017023    0.57864976    0.50000000    0.01260000
opls_543-18    C    0.41378974    0.63318014    0.50000000    0.34640000
opls_700-19    C    0.27358011    0.49438014    0.50000000    -0.06030000
opls_145-20    C    0.17995010    0.58790992    0.50000000    -0.16210000
opls_700-21    C    0.14695975    0.46154974    0.50000000    -0.00030000
opls_700-22    C    0.20095006    0.51670017    0.50000000    0.01530000
opls_700-23    C    0.83360986    0.61194027    0.50000000    0.00800000
opls_145-24    C    0.63100012    0.23853983    0.50000000    -0.17960000
opls_700-25    C    0.07359983    0.48057974    0.50000000    -0.00010000
opls_543-26    C    0.46943012    0.34139001    0.50000000    0.35810000
opls_700-27    C    0.28982977    0.42135024    0.50000000    0.01260000
opls_543-28    C    0.58621026    0.36681986    0.50000000    0.34640000
opls_700-29    C    0.72641989    0.50561986    0.50000000    -0.06030000
opls_145-30    C    0.82004990    0.41209008    0.50000000    -0.16210000
opls_700-31    C    0.85304025    0.53845026    0.50000000    -0.00030000
opls_700-32    C    0.79904994    0.48329983    0.50000000    0.01530000
opls_700-33    C    0.16639014    0.38805973    0.50000000    0.00800000
opls_145-34    C    0.36899988    0.76146017    0.50000000    -0.17960000
opls_700-35    C    0.92640017    0.51942026    0.50000000    -0.00010000
opls_543-36    C    0.34139001    0.53056988    0.50000000    0.35810000
opls_700-37    C    0.42135024    0.71017023    0.50000000    0.01260000
opls_543-38    C    0.36681986    0.41378974    0.50000000    0.34640000
opls_700-39    C    0.50561986    0.27358011    0.50000000    -0.06030000
opls_145-40    C    0.41209008    0.17995010    0.50000000    -0.16210000
opls_700-41    C    0.53845026    0.14695975    0.50000000    -0.00030000
opls_700-42    C    0.48329983    0.20095006    0.50000000    0.01530000
opls_700-43    C    0.38805973    0.83360986    0.50000000    0.00800000
opls_145-44    C    0.76146017    0.63100012    0.50000000    -0.17960000
opls_700-45    C    0.51942026    0.07359983    0.50000000    -0.00010000
opls_543-46    C    0.65860999    0.46943012    0.50000000    0.35810000
opls_700-47    C    0.57864976    0.28982977    0.50000000    0.01260000
opls_543-48    C    0.63318014    0.58621026    0.50000000    0.34640000
opls_700-49    C    0.49438014    0.72641989    0.50000000    -0.06030000
opls_145-50    C    0.58790992    0.82004990    0.50000000    -0.16210000
opls_700-51    C    0.46154974    0.85304025    0.50000000    -0.00030000
opls_700-52    C    0.51670017    0.79904994    0.50000000    0.01530000
opls_700-53    C    0.61194027    0.16639014    0.50000000    0.00800000
opls_145-54    C    0.23853983    0.36899988    0.50000000    -0.17960000
opls_700-55    C    0.48057974    0.92640017    0.50000000    -0.00010000
opls_543-56    C    0.96943012    0.15860999    0.50000000    0.35810000
opls_700-57    C    0.78982977    0.07864976    0.50000000    0.01260000
opls_543-58    C    0.08621026    0.13318014    0.50000000    0.34640000
opls_700-59    C    0.22641989    0.99438014    0.50000000    -0.06030000
opls_145-60    C    0.32004990    0.08790992    0.50000000    -0.16210000
opls_700-61    C    0.35304025    0.96154974    0.50000000    -0.00030000
opls_700-62    C    0.29904994    0.01670017    0.50000000    0.01530000
opls_700-63    C    0.66639014    0.11194027    0.50000000    0.00800000
opls_145-64    C    0.86899988    0.73853983    0.50000000    -0.17960000
opls_700-65    C    0.42640017    0.98057974    0.50000000    -0.00010000
opls_543-66    C    0.03056988    0.84139001    0.50000000    0.35810000
opls_700-67    C    0.21017023    0.92135024    0.50000000    0.01260000
opls_543-68    C    0.91378974    0.86681986    0.50000000    0.34640000
opls_700-69    C    0.77358011    0.00561986    0.50000000    -0.06030000
opls_145-70    C    0.67995010    0.91209008    0.50000000    -0.16210000
opls_700-71    C    0.64695975    0.03845026    0.50000000    -0.00030000
opls_700-72    C    0.70095006    0.98329983    0.50000000    0.01530000
opls_700-73    C    0.33360986    0.88805973    0.50000000    0.00800000
opls_145-74    C    0.13100012    0.26146017    0.50000000    -0.17960000
opls_700-75    C    0.57359983    0.01942026    0.50000000    -0.00010000
opls_543-76    C    0.15860999    0.03056988    0.50000000    0.35810000
opls_700-77    C    0.07864976    0.21017023    0.50000000    0.01260000
opls_543-78    C    0.13318014    0.91378974    0.50000000    0.34640000
opls_700-79    C    0.99438014    0.77358011    0.50000000    -0.06030000
opls_145-80    C    0.08790992    0.67995010    0.50000000    -0.16210000
opls_700-81    C    0.96154974    0.64695975    0.50000000    -0.00030000
opls_700-82    C    0.01670017    0.70095006    0.50000000    0.01530000
opls_700-83    C    0.11194027    0.33360986    0.50000000    0.00800000
opls_145-84    C    0.73853983    0.13100012    0.50000000    -0.17960000
opls_700-85    C    0.98057974    0.57359983    0.50000000    -0.00010000
opls_543-86    C    0.84139001    0.96943012    0.50000000    0.35810000
opls_700-87    C    0.92135024    0.78982977    0.50000000    0.01260000
opls_543-88    C    0.86681986    0.08621026    0.50000000    0.34650000
opls_700-89    C    0.00561986    0.22641989    0.50000000    -0.06030000
opls_145-90    C    0.91209008    0.32004990    0.50000000    -0.16210000
opls_700-91    C    0.03845026    0.35304025    0.50000000    -0.00030000
opls_700-92    C    0.98329983    0.29904994    0.50000000    0.01530000
opls_700-93    C    0.88805973    0.66639014    0.50000000    0.00800000
opls_145-94    C    0.26146017    0.86899988    0.50000000    -0.17960000
opls_700-95    C    0.01942026    0.42640017    0.50000000    -0.00010000
opls_700-96    C    0.10777002    0.60777002    0.50000000    0.06960000
opls_700-97    C    0.05349022    0.55349022    0.50000000    -0.00020000
opls_700-98    C    0.89222998    0.39222998    0.50000000    0.06960000
opls_700-99    C    0.94650978    0.44650978    0.50000000    -0.00020000
opls_700-100    C    0.39222998    0.10777002    0.50000000    0.06960000
opls_700-101    C    0.44650978    0.05349022    0.50000000    -0.00020000
opls_700-102    C    0.60777002    0.89222998    0.50000000    0.06960000
opls_700-103    C    0.55349022    0.94650978    0.50000000    -0.00020000
opls_750-104    N    0.60122996    0.64963986    0.50000000    -0.36000000
opls_542-105    N    0.48052003    0.60388981    0.50000000    -0.40100000
opls_750-106    N    0.39877004    0.35036014    0.50000000    -0.36000000
opls_542-107    N    0.51947997    0.39611019    0.50000000    -0.40100000
opls_750-108    N    0.35036014    0.60122996    0.50000000    -0.36000000
opls_542-109    N    0.39611019    0.48052003    0.50000000    -0.40100000
opls_750-110    N    0.64963986    0.39877004    0.50000000    -0.35990000
opls_542-111    N    0.60388981    0.51947997    0.50000000    -0.40100000
opls_750-112    N    0.89877004    0.14963986    0.50000000    -0.36000000
opls_542-113    N    0.01947997    0.10388981    0.50000000    -0.40100000
opls_750-114    N    0.10122996    0.85036014    0.50000000    -0.36000000
opls_542-115    N    0.98052003    0.89611019    0.50000000    -0.40100000
opls_750-116    N    0.14963986    0.10122996    0.50000000    -0.36000000
opls_542-117    N    0.10388981    0.98052003    0.50000000    -0.40100000
opls_750-118    N    0.85036014    0.89877004    0.50000000    -0.36000000
opls_542-119    N    0.89611019    0.01947997    0.50000000    -0.40100000
Zn2+-120    Zn    0.00000000    0.00000000    0.50000000    0.78030000
Zn2+-121    Zn    0.50000000    0.50000000    0.50000000    0.78030000
