#======================================================================
# Crystal Data Generated By AuToFF
#----------------------------------------------------------------------

data_AuToFF_phase_1

_cell_length_a                         38.8000
_cell_length_b                         39.1000
_cell_length_c                         8.2000
_cell_angle_alpha                      90.00
_cell_angle_beta                       90.00
_cell_angle_gamma                      120.10
_symmetry_space_group_name_H-M_alt     'P 1'
_symmetry_space_group_IT_number        1

loop_
_space_group_symop_operation_xyz
   'x, y, z'

loop_
   _atom_site_label
   _atom_site_type_symbol
   _atom_site_fract_x
   _atom_site_fract_y
   _atom_site_fract_z
   _atom_site_charge
opls_146-0    H    0.85827992    0.59541993    0.71328049    0.11820000
opls_146-1    H    0.95395000    0.57110001    0.65130976    0.12160000
opls_146-2    H    0.97237985    0.68615993    0.54229024    0.12270000
opls_144-3    H    0.90485988    0.51516994    0.56891951    0.12110000
opls_144-4    H    0.03451002    0.70034014    0.61828049    0.11820000
opls_146-5    H    0.79563999    0.46369011    0.63610976    0.11920000
opls_146-6    H    0.75417998    0.39375010    0.58420000    0.12250000
opls_146-7    H    0.85832013    0.38089012    0.58880976    0.12250000
opls_146-8    H    0.89991988    0.45119994    0.64518049    0.11540000
opls_194-9    H    0.77305011    0.28754011    0.24253049    0.05960000
opls_194-10    H    0.71882997    0.21152012    0.26555000    0.05820000
opls_146-11    H    0.64255993    0.16287999    0.37755976    0.11800000
opls_146-12    H    0.60513995    0.09438999    0.47250976    0.11640000
opls_146-13    H    0.71243016    0.10542010    0.67908049    0.11540000
opls_146-14    H    0.75012015    0.17333010    0.58371951    0.12370000
opls_144-15    H    0.60513985    0.04384993    0.69070000    0.11460000
opls_146-16    H    0.56114000    0.98647015    0.56370000    0.12370000
opls_146-17    H    0.53969996    0.86948990    0.65331951    0.12260000
opls_146-18    H    0.65941000    0.96804988    0.65581951    0.12270000
opls_144-19    H    0.66656004    0.92301009    0.51574024    0.11670000
opls_146-20    H    0.61346991    0.81189993    0.56651951    0.08860000
opls_146-21    H    0.64327019    0.77410012    0.47761951    0.12310000
opls_146-22    H    0.75691008    0.88119993    0.42825976    0.11820000
opls_146-23    H    0.72703006    0.91936009    0.52285976    0.12070000
opls_194-24    H    0.72590016    0.73905016    0.11233049    0.06010000
opls_194-25    H    0.77441000    0.80481012    0.09343049    0.05930000
opls_146-26    H    0.75263991    0.67484987    0.48970976    0.12010000
opls_146-27    H    0.78561996    0.63863990    0.57500000    0.11960000
opls_146-28    H    0.89980992    0.74227003    0.48320000    0.09380000
opls_146-29    H    0.86744989    0.77831002    0.40348049    0.12370000
opls_144-30    H    0.84488991    0.63174992    0.52611951    0.11670000
opls_146-31    H    0.08811008    0.64629995    0.57741951    0.11820000
opls_146-32    H    0.15319013    0.67072008    0.45135976    0.12070000
opls_146-33    H    0.14964989    0.77267997    0.27105000    0.11860000
opls_146-34    H    0.08368008    0.74711994    0.39324024    0.11960000
opls_194-35    H    0.26549996    0.73955005    0.02605000    0.06000000
opls_194-36    H    0.24988013    0.78887009    0.99150000    0.06000000
opls_146-37    H    0.35790002    0.76692015    0.38419024    0.12370000
opls_146-38    H    0.42593009    0.79927999    0.48853049    0.12480000
opls_146-39    H    0.43143016    0.91188007    0.45473049    0.09880000
opls_146-40    H    0.36425005    0.88000001    0.35550976    0.12070000
opls_144-41    H    0.49110995    0.85964995    0.47651951    0.12040000
opls_146-42    H    0.85827992    0.59541993    0.21328049    0.11830000
opls_146-43    H    0.95395000    0.57110001    0.15130976    0.12160000
opls_146-44    H    0.97237985    0.68615993    0.04229024    0.12270000
opls_144-45    H    0.90485988    0.51516994    0.06891951    0.12110000
opls_144-46    H    0.03451002    0.70034014    0.11828049    0.11820000
opls_146-47    H    0.79563999    0.46369011    0.13610976    0.11910000
opls_146-48    H    0.75417998    0.39375010    0.08420000    0.12250000
opls_146-49    H    0.85832013    0.38089012    0.08880976    0.12250000
opls_146-50    H    0.89991988    0.45119994    0.14518049    0.11540000
opls_194-51    H    0.77305011    0.28754011    0.74253049    0.05960000
opls_194-52    H    0.71882997    0.21152012    0.76555000    0.05820000
opls_146-53    H    0.64255993    0.16287999    0.87755976    0.11800000
opls_146-54    H    0.60513995    0.09438999    0.97250976    0.11640000
opls_146-55    H    0.71243016    0.10542010    0.17908049    0.11540000
opls_146-56    H    0.75012015    0.17333010    0.08371951    0.12370000
opls_144-57    H    0.60513985    0.04384993    0.19070000    0.11460000
opls_146-58    H    0.56114000    0.98647015    0.06370000    0.12370000
opls_146-59    H    0.53969996    0.86948990    0.15331951    0.12260000
opls_146-60    H    0.65941000    0.96804988    0.15581951    0.12270000
opls_144-61    H    0.66656004    0.92301009    0.01574024    0.11670000
opls_146-62    H    0.61346991    0.81189993    0.06651951    0.08850000
opls_146-63    H    0.64327019    0.77410012    0.97763049    0.12310000
opls_146-64    H    0.75691008    0.88119993    0.92825976    0.11820000
opls_146-65    H    0.72703006    0.91936009    0.02285976    0.12070000
opls_194-66    H    0.72590016    0.73905016    0.61233049    0.06010000
opls_194-67    H    0.77441000    0.80481012    0.59343049    0.05930000
opls_146-68    H    0.75263991    0.67484987    0.98970976    0.12000000
opls_146-69    H    0.78561996    0.63863990    0.07500000    0.11960000
opls_146-70    H    0.89980992    0.74227003    0.98320000    0.09380000
opls_146-71    H    0.86744989    0.77831002    0.90348049    0.12370000
opls_144-72    H    0.84488991    0.63174992    0.02611951    0.11670000
opls_146-73    H    0.08811008    0.64629995    0.07741951    0.11820000
opls_146-74    H    0.15319013    0.67072008    0.95135976    0.12070000
opls_146-75    H    0.14964989    0.77267997    0.77105000    0.11860000
opls_146-76    H    0.08368008    0.74711994    0.89324024    0.11950000
opls_194-77    H    0.26549996    0.73955005    0.52605000    0.06000000
opls_194-78    H    0.24988013    0.78887009    0.49150000    0.06000000
opls_146-79    H    0.35790002    0.76692015    0.88419024    0.12370000
opls_146-80    H    0.42593009    0.79927999    0.98853049    0.12480000
opls_146-81    H    0.43143016    0.91188007    0.95473049    0.09880000
opls_146-82    H    0.36425005    0.88000001    0.85550976    0.12070000
opls_144-83    H    0.49110995    0.85964995    0.97651951    0.12040000
opls_145-84    C    0.88877993    0.60489006    0.68005000    -0.17140000
opls_700-85    C    0.90211004    0.57746999    0.68105976    0.06850000
opls_145-86    C    0.94229994    0.59094989    0.64263049    -0.16980000
opls_700-87    C    0.96805000    0.62999011    0.59226951    0.06640000
opls_145-88    C    0.95357014    0.65641010    0.58740976    -0.16640000
opls_700-89    C    0.91420990    0.64431990    0.63305000    0.06340000
opls_141-90    C    0.87345000    0.53473011    0.71428049    -0.00510000
opls_141-91    C    0.00894007    0.64183996    0.53381951    0.00300000
opls_423-92    C    0.83904005    0.52464007    0.81554024    0.23740000
opls_142-93    C    0.87879005    0.50641994    0.64420000    -0.15080000
opls_142-94    C    0.03961006    0.67890013    0.55564024    -0.15030000
opls_423-95    C    0.01426996    0.61289008    0.44405000    0.23740000
opls_700-96    C    0.85124006    0.46309000    0.64834024    0.12850000
opls_145-97    C    0.80969004    0.44591015    0.63424024    -0.11490000
opls_145-98    C    0.78576998    0.40556005    0.60201951    -0.11430000
opls_700-99    C    0.80293983    0.38170987    0.58019024    0.03200000
opls_145-100    C    0.84415995    0.39850009    0.60315976    -0.11730000
opls_145-101    C    0.86797009    0.43870003    0.63640976    -0.11930000
opls_141-102    C    0.77893004    0.34080991    0.51775976    0.07540000
opls_141-103    C    0.72895990    0.27476999    0.42509024    0.11480000
opls_211-104    C    0.76950997    0.28515004    0.37715976    0.01710000
opls_211-105    C    0.72131998    0.21504005    0.40091951    0.02300000
opls_700-106    C    0.69923990    0.17390005    0.47360000    0.05840000
opls_145-107    C    0.65808997    0.15080015    0.44473049    -0.12050000
opls_145-108    C    0.63673991    0.11170997    0.49830000    -0.11690000
opls_700-109    C    0.65620994    0.09459988    0.57873049    0.09860000
opls_145-110    C    0.69707984    0.11766993    0.61195976    -0.11790000
opls_145-111    C    0.71853990    0.15682987    0.55841951    -0.12830000
opls_142-112    C    0.63290006    0.05265994    0.62735976    -0.15230000
opls_141-113    C    0.64199995    0.02496998    0.58253049    -0.00190000
opls_700-114    C    0.61353000    0.98230991    0.61154024    0.06340000
opls_423-115    C    0.67807993    0.03553005    0.49176951    0.23690000
opls_145-116    C    0.57232009    0.96698004    0.59560000    -0.16280000
opls_700-117    C    0.54528004    0.92642005    0.61226951    0.06640000
opls_145-118    C    0.56018999    0.90083015    0.64113049    -0.16700000
opls_700-119    C    0.60143007    0.91519010    0.65015976    0.07160000
opls_145-120    C    0.62770001    0.95621008    0.64121951    -0.16940000
opls_141-121    C    0.61662004    0.88693994    0.65934024    0.00280000
opls_423-122    C    0.59295002    0.85051003    0.74800976    0.23730000
opls_142-123    C    0.65038999    0.89497012    0.57895976    -0.09560000
opls_700-124    C    0.66789995    0.86907988    0.55539024    0.11250000
opls_145-125    C    0.64504996    0.82766998    0.54424024    -0.11730000
opls_145-126    C    0.66221993    0.80570998    0.48990000    -0.11580000
opls_700-127    C    0.70245992    0.82452992    0.44315000    0.03120000
opls_145-128    C    0.72571015    0.86565011    0.46179024    -0.11490000
opls_145-129    C    0.70860013    0.88754005    0.51675976    -0.11530000
opls_141-130    C    0.71957004    0.80207004    0.36549024    0.07470000
opls_211-131    C    0.73524003    0.75226990    0.23536951    0.01570000
opls_211-132    C    0.76816007    0.79550997    0.22284024    0.01580000
opls_141-133    C    0.78745999    0.74986002    0.36640976    0.07460000
opls_700-134    C    0.80732019    0.72954012    0.43950976    0.03150000
opls_145-135    C    0.78487008    0.69013008    0.49178049    -0.11790000
opls_145-136    C    0.80374989    0.66940990    0.54095976    -0.11590000
opls_700-137    C    0.84544998    0.68752007    0.53985976    0.11250000
opls_145-138    C    0.86787000    0.72738004    0.49298049    -0.12000000
opls_145-139    C    0.84905012    0.74818003    0.44485000    -0.11600000
opls_142-140    C    0.86342012    0.66214006    0.56515000    -0.09510000
opls_141-141    C    0.89983996    0.67304010    0.62674024    -0.00200000
opls_423-142    C    0.92612988    0.71216989    0.68995000    0.23770000
opls_700-143    C    0.08014001    0.69396011    0.48790976    0.11680000
opls_145-144    C    0.10080000    0.67332005    0.50675976    -0.12220000
opls_145-145    C    0.13838997    0.68765989    0.43603049    -0.12540000
opls_700-146    C    0.15652008    0.72342999    0.34843049    0.01320000
opls_145-147    C    0.13655015    0.74496015    0.33695976    -0.12660000
opls_145-148    C    0.09879987    0.73036992    0.40650976    -0.11580000
opls_141-149    C    0.19569006    0.73801993    0.26755000    0.07470000
opls_211-150    C    0.26133998    0.75021004    0.14560976    0.01570000
opls_211-151    C    0.25215999    0.78361992    0.12285000    0.01570000
opls_141-152    C    0.31618999    0.80191011    0.27705976    0.07470000
opls_700-153    C    0.35556990    0.82082997    0.35960000    0.03140000
opls_145-154    C    0.37349004    0.79856992    0.40228049    -0.11710000
opls_145-155    C    0.41245010    0.81710015    0.46256951    -0.11600000
opls_700-156    C    0.43446016    0.85823010    0.48301951    0.11220000
opls_145-157    C    0.41580999    0.88020990    0.44679024    -0.12000000
opls_145-158    C    0.37687009    0.86173997    0.38675976    -0.11580000
opls_142-159    C    0.47779011    0.87654010    0.51988049    -0.09560000
opls_141-160    C    0.50174003    0.91141003    0.59504024    0.00360000
opls_423-161    C    0.48690990    0.93595994    0.65949024    0.23770000
opls_145-162    C    0.88877993    0.60489006    0.18005000    -0.17140000
opls_700-163    C    0.90211004    0.57746999    0.18105976    0.06860000
opls_145-164    C    0.94229994    0.59094989    0.14263049    -0.16980000
opls_700-165    C    0.96805000    0.62999011    0.09226951    0.06640000
opls_145-166    C    0.95357014    0.65641010    0.08740976    -0.16640000
opls_700-167    C    0.91420990    0.64431990    0.13305000    0.06340000
opls_141-168    C    0.87345000    0.53473011    0.21428049    -0.00510000
opls_141-169    C    0.00894007    0.64183996    0.03381951    0.00300000
opls_423-170    C    0.83904005    0.52464007    0.31554024    0.23760000
opls_142-171    C    0.87879005    0.50641994    0.14420000    -0.15080000
opls_142-172    C    0.03961006    0.67890013    0.05564024    -0.15030000
opls_423-173    C    0.01426996    0.61289008    0.94405000    0.23740000
opls_700-174    C    0.85124006    0.46309000    0.14834024    0.12860000
opls_145-175    C    0.80969004    0.44591015    0.13424024    -0.11490000
opls_145-176    C    0.78576998    0.40556005    0.10201951    -0.11430000
opls_700-177    C    0.80293983    0.38170987    0.08019024    0.03200000
opls_145-178    C    0.84415995    0.39850009    0.10315976    -0.11730000
opls_145-179    C    0.86797009    0.43870003    0.13640976    -0.11930000
opls_141-180    C    0.77893004    0.34080991    0.01775976    0.07540000
opls_141-181    C    0.72895990    0.27476999    0.92509024    0.11480000
opls_211-182    C    0.76950997    0.28515004    0.87715976    0.01710000
opls_211-183    C    0.72131998    0.21504005    0.90091951    0.02300000
opls_700-184    C    0.69923990    0.17390005    0.97360000    0.05840000
opls_145-185    C    0.65808997    0.15080015    0.94473049    -0.12050000
opls_145-186    C    0.63673991    0.11170997    0.99830000    -0.11680000
opls_700-187    C    0.65620994    0.09459988    0.07873049    0.09860000
opls_145-188    C    0.69707984    0.11766993    0.11195976    -0.11790000
opls_145-189    C    0.71853990    0.15682987    0.05841951    -0.12830000
opls_142-190    C    0.63290006    0.05265994    0.12735976    -0.15230000
opls_141-191    C    0.64199995    0.02496998    0.08253049    -0.00190000
opls_700-192    C    0.61353000    0.98230991    0.11154024    0.06340000
opls_423-193    C    0.67807993    0.03553005    0.99176951    0.23680000
opls_145-194    C    0.57232009    0.96698004    0.09560000    -0.16280000
opls_700-195    C    0.54528004    0.92642005    0.11226951    0.06640000
opls_145-196    C    0.56018999    0.90083015    0.14113049    -0.16700000
opls_700-197    C    0.60143007    0.91519010    0.15015976    0.07170000
opls_145-198    C    0.62770001    0.95621008    0.14121951    -0.16930000
opls_141-199    C    0.61662004    0.88693994    0.15934024    0.00280000
opls_423-200    C    0.59295002    0.85051003    0.24800976    0.23730000
opls_142-201    C    0.65038999    0.89497012    0.07895976    -0.09560000
opls_700-202    C    0.66789995    0.86907988    0.05539024    0.11250000
opls_145-203    C    0.64504996    0.82766998    0.04424024    -0.11730000
opls_145-204    C    0.66221993    0.80570998    0.98990000    -0.11590000
opls_700-205    C    0.70245992    0.82452992    0.94315000    0.03120000
opls_145-206    C    0.72571015    0.86565011    0.96179024    -0.11490000
opls_145-207    C    0.70860013    0.88754005    0.01675976    -0.11530000
opls_141-208    C    0.71957004    0.80207004    0.86548049    0.07470000
opls_211-209    C    0.73524003    0.75226990    0.73536951    0.01570000
opls_211-210    C    0.76816007    0.79550997    0.72284024    0.01570000
opls_141-211    C    0.78745999    0.74986002    0.86640976    0.07460000
opls_700-212    C    0.80732019    0.72954012    0.93950976    0.03150000
opls_145-213    C    0.78487008    0.69013008    0.99178049    -0.11790000
opls_145-214    C    0.80374989    0.66940990    0.04095976    -0.11590000
opls_700-215    C    0.84544998    0.68752007    0.03985976    0.11250000
opls_145-216    C    0.86787000    0.72738004    0.99298049    -0.12000000
opls_145-217    C    0.84905012    0.74818003    0.94485000    -0.11600000
opls_142-218    C    0.86342012    0.66214006    0.06515000    -0.09520000
opls_141-219    C    0.89983996    0.67304010    0.12674024    -0.00200000
opls_423-220    C    0.92612988    0.71216989    0.18995000    0.23770000
opls_700-221    C    0.08014001    0.69396011    0.98790976    0.11680000
opls_145-222    C    0.10080000    0.67332005    0.00675976    -0.12210000
opls_145-223    C    0.13838997    0.68765989    0.93603049    -0.12540000
opls_700-224    C    0.15652008    0.72342999    0.84841951    0.01320000
opls_145-225    C    0.13655015    0.74496015    0.83695976    -0.12660000
opls_145-226    C    0.09879987    0.73036992    0.90650976    -0.11580000
opls_141-227    C    0.19569006    0.73801993    0.76755000    0.07470000
opls_211-228    C    0.26133998    0.75021004    0.64560976    0.01570000
opls_211-229    C    0.25215999    0.78361992    0.62285000    0.01570000
opls_141-230    C    0.31618999    0.80191011    0.77705976    0.07470000
opls_700-231    C    0.35556990    0.82082997    0.85960000    0.03140000
opls_145-232    C    0.37349004    0.79856992    0.90228049    -0.11710000
opls_145-233    C    0.41245010    0.81710015    0.96256951    -0.11600000
opls_700-234    C    0.43446016    0.85823010    0.98301951    0.11220000
opls_145-235    C    0.41580999    0.88020990    0.94679024    -0.12000000
opls_145-236    C    0.37687009    0.86173997    0.88675976    -0.11580000
opls_142-237    C    0.47779011    0.87654010    0.01988049    -0.09560000
opls_141-238    C    0.50174003    0.91141003    0.09504024    0.00360000
opls_423-239    C    0.48690990    0.93595994    0.15949024    0.23770000
opls_753-240    N    0.81148007    0.51702997    0.89575976    -0.28730000
opls_753-241    N    0.01841997    0.58962995    0.37284024    -0.28980000
opls_750-242    N    0.79609002    0.32277986    0.45356951    -0.30480000
opls_750-243    N    0.70343000    0.23822006    0.44955976    -0.31020000
opls_753-244    N    0.70687005    0.04383012    0.41915000    -0.29000000
opls_753-245    N    0.57335009    0.82132010    0.81829024    -0.29000000
opls_750-246    N    0.75518016    0.81987009    0.30575000    -0.29720000
opls_750-247    N    0.75046988    0.73047989    0.32380000    -0.30350000
opls_753-248    N    0.94759997    0.74344008    0.74043049    -0.30200000
opls_750-249    N    0.21449997    0.77261996    0.20179024    -0.30370000
opls_750-250    N    0.29796014    0.76499006    0.23854024    -0.30950000
opls_753-251    N    0.47570998    0.95627009    0.71021951    -0.30190000
opls_753-252    N    0.81148007    0.51702997    0.39575976    -0.28730000
opls_753-253    N    0.01841997    0.58962995    0.87284024    -0.29000000
opls_750-254    N    0.79609002    0.32277986    0.95356951    -0.30470000
opls_750-255    N    0.70343000    0.23822006    0.94955976    -0.31040000
opls_753-256    N    0.70687005    0.04383012    0.91915000    -0.29000000
opls_753-257    N    0.57335009    0.82132010    0.31829024    -0.28990000
opls_750-258    N    0.75518016    0.81987009    0.80575000    -0.29720000
opls_750-259    N    0.75046988    0.73047989    0.82380000    -0.30350000
opls_753-260    N    0.94759997    0.74344008    0.24043049    -0.30200000
opls_750-261    N    0.21449997    0.77261996    0.70179024    -0.30360000
opls_750-262    N    0.29796014    0.76499006    0.73854024    -0.30950000
opls_753-263    N    0.47570998    0.95627009    0.21021951    -0.30190000
opls_202-264    S    0.72475992    0.31429000    0.51459024    0.03950000
opls_202-265    S    0.77467009    0.24451998    0.44923049    0.06470000
opls_202-266    S    0.69194016    0.74935008    0.33925000    0.04400000
opls_202-267    S    0.81385997    0.80152994    0.31559024    0.04400000
opls_202-268    S    0.21962998    0.70898993    0.25220976    0.04400000
opls_202-269    S    0.29239001    0.82902007    0.21298049    0.04400000
opls_202-270    S    0.72475992    0.31429000    0.01459024    0.03950000
opls_202-271    S    0.77467009    0.24451998    0.94923049    0.06470000
opls_202-272    S    0.69194016    0.74935008    0.83925000    0.04400000
opls_202-273    S    0.81385997    0.80152994    0.81559024    0.04400000
opls_202-274    S    0.21962998    0.70898993    0.75220976    0.04400000
opls_202-275    S    0.29239001    0.82902007    0.71298049    0.04400000
