#======================================================================
# Crystal Data Generated By AuToFF
#----------------------------------------------------------------------

data_AuToFF_phase_1

_cell_length_a                         29.5272
_cell_length_b                         29.5272
_cell_length_c                         3.6081
_cell_angle_alpha                      90.00
_cell_angle_beta                       90.00
_cell_angle_gamma                      120.00
_symmetry_space_group_name_H-M_alt     'P 1'
_symmetry_space_group_IT_number        1

loop_
_space_group_symop_operation_xyz
   'x, y, z'

loop_
   _atom_site_label
   _atom_site_type_symbol
   _atom_site_fract_x
   _atom_site_fract_y
   _atom_site_fract_z
   _atom_site_charge
opls_700-0    C    0.64183993    0.27904006    0.39843962    0.07600000
opls_142-1    C    0.53096990    0.50603000    0.42228874    0.09360000
opls_916-2    C    0.42582007    0.56270993    0.33183947    0.17270000
opls_145-3    C    0.40861007    0.51049008    0.27779995    -0.23130000
opls_145-4    C    0.44245988    0.49165999    0.30664061    -0.22320000
opls_700-5    C    0.49429983    0.52482998    0.39376126    0.05090000
opls_145-6    C    0.51138989    0.57688988    0.45500956    -0.22270000
opls_145-7    C    0.47750993    0.59571997    0.42613010    -0.23120000
opls_280-8    C    0.29717973    0.68574977    0.06059976    0.24320000
opls_145-9    C    0.27734990    0.62995990    0.10891882    -0.11080000
opls_145-10    C    0.61324990    0.30433990    0.39873895    -0.14760000
opls_145-11    C    0.54752995    0.43451978    0.38140018    0.18130000
opls_145-12    C    0.59722977    0.45914973    0.53330007    -0.23140000
opls_145-13    C    0.62579005    0.43421983    0.54346886    -0.22300000
opls_700-14    C    0.60605985    0.38445977    0.39541864    0.05890000
opls_145-15    C    0.55614010    0.36024005    0.24423104    -0.22240000
opls_145-16    C    0.52718002    0.38473000    0.24334969    -0.23120000
opls_142-17    C    0.40416982    0.63211975    0.19141099    0.09550000
opls_700-18    C    0.72096011    0.36279995    0.39843962    0.07600000
opls_142-19    C    0.49397014    0.02494006    0.42228874    0.09360000
opls_916-20    C    0.43728999    0.86310987    0.33183947    0.17270000
opls_145-21    C    0.48951006    0.89811981    0.27779995    -0.23130000
opls_145-22    C    0.50834011    0.95079994    0.30664061    -0.22320000
opls_700-23    C    0.47516977    0.96946969    0.39376126    0.05090000
opls_145-24    C    0.42310984    0.93449964    0.45500956    -0.22270000
opls_145-25    C    0.40427984    0.88178979    0.42613010    -0.23120000
opls_280-26    C    0.31424972    0.61142976    0.06059976    0.24320000
opls_145-27    C    0.37004006    0.64738999    0.10891882    -0.11080000
opls_145-28    C    0.69565999    0.30890987    0.39873895    -0.14760000
opls_145-29    C    0.56548004    0.11300985    0.38140018    0.18130000
opls_145-30    C    0.54085013    0.13808014    0.53330007    -0.23140000
opls_145-31    C    0.56578001    0.19156977    0.54346886    -0.22300000
opls_700-32    C    0.61553999    0.22159991    0.39541864    0.05890000
opls_145-33    C    0.63975993    0.19590001    0.24423104    -0.22240000
opls_145-34    C    0.61527009    0.14244988    0.24334969    -0.23120000
opls_142-35    C    0.36788004    0.77205000    0.19141099    0.09550000
opls_700-36    C    0.63719996    0.35815998    0.39843962    0.07600000
opls_142-37    C    0.97505996    0.46902994    0.42228874    0.09360000
opls_916-38    C    0.13688975    0.57417981    0.33183947    0.17270000
opls_145-39    C    0.10188001    0.59138973    0.27779995    -0.23130000
opls_145-40    C    0.04920001    0.55754007    0.30664061    -0.22320000
opls_700-41    C    0.03052987    0.50569994    0.39376126    0.05090000
opls_145-42    C    0.06550008    0.48861009    0.45500956    -0.22270000
opls_145-43    C    0.11821003    0.52248985    0.42613010    -0.23120000
opls_280-44    C    0.38856982    0.70281968    0.06059976    0.24320000
opls_145-45    C    0.35260984    0.72264972    0.10891882    -0.11080000
opls_145-46    C    0.69108991    0.38674984    0.39873895    -0.14760000
opls_145-47    C    0.88699016    0.45246998    0.38140018    0.18130000
opls_145-48    C    0.86191990    0.40276974    0.53330007    -0.23140000
opls_145-49    C    0.80843008    0.37421000    0.54346886    -0.22300000
opls_700-50    C    0.77839997    0.39393993    0.39541864    0.05890000
opls_145-51    C    0.80409997    0.44385994    0.24423104    -0.22240000
opls_145-52    C    0.85755004    0.47281973    0.24334969    -0.23120000
opls_142-53    C    0.22794995    0.59582986    0.19141099    0.09550000
opls_146-54    H    0.66276996    0.45378981    0.67891134    0.07240000
opls_146-55    H    0.53953010    0.32292010    0.11468917    0.20430000
opls_146-56    H    0.48904987    0.36530002    0.12410133    0.20000000
opls_146-57    H    0.61382987    0.49684001    0.65609046    0.19860000
opls_144-58    H    0.44439998    0.66076005    0.19189878    0.09960000
opls_910-59    H    0.35175997    0.55420000    0.36295003    0.22370000
opls_144-60    H    0.57057002    0.53344002    0.48332918    0.09970000
opls_146-61    H    0.36886978    0.48436979    0.20830908    0.19860000
opls_146-62    H    0.42806016    0.45124008    0.25910867    0.20500000
opls_146-63    H    0.55100990    0.60302972    0.52797871    0.19860000
opls_146-64    H    0.49184983    0.63573982    0.48661068    0.20470000
opls_146-65    H    0.57202007    0.28196991    0.39842022    0.20410000
opls_146-66    H    0.54620979    0.20897991    0.67891134    0.07240000
opls_146-67    H    0.67707986    0.21660994    0.11468917    0.20430000
opls_146-68    H    0.63470006    0.12375002    0.12410133    0.20000000
opls_146-69    H    0.50315997    0.11699010    0.65609046    0.19860000
opls_144-70    H    0.33923998    0.78363995    0.19189878    0.09960000
opls_910-71    H    0.44579996    0.79755984    0.36295003    0.22370000
opls_144-72    H    0.46656002    0.03712989    0.48332918    0.09960000
opls_146-73    H    0.51563007    0.88449986    0.20830908    0.19860000
opls_146-74    H    0.54875998    0.97681972    0.25910867    0.20500000
opls_146-75    H    0.39697016    0.94797998    0.52797871    0.19860000
opls_146-76    H    0.36425984    0.85610984    0.48661068    0.20470000
opls_146-77    H    0.71802992    0.29005006    0.39842022    0.20410000
opls_146-78    H    0.79102005    0.33722989    0.67891134    0.07240000
opls_146-79    H    0.78339004    0.46046996    0.11468917    0.20430000
opls_146-80    H    0.87625007    0.51094997    0.12410133    0.20000000
opls_146-81    H    0.88300983    0.38616989    0.65609046    0.19860000
opls_144-82    H    0.21636004    0.55560001    0.19189878    0.09960000
opls_910-83    H    0.20243987    0.64823977    0.36295003    0.22370000
opls_144-84    H    0.96286997    0.42943009    0.48332918    0.09960000
opls_146-85    H    0.11549996    0.63112997    0.20830908    0.19860000
opls_146-86    H    0.02318000    0.57193980    0.25910867    0.20500000
opls_146-87    H    0.05202008    0.44898990    0.52797871    0.19860000
opls_146-88    H    0.14389013    0.50814995    0.48661068    0.20470000
opls_146-89    H    0.70995001    0.42798003    0.39842022    0.20400000
opls_750-90    N    0.51616013    0.45801995    0.36498988    -0.33470000
opls_238-91    N    0.38979988    0.58061984    0.29957041    -0.26160000
opls_750-92    N    0.54198021    0.05814016    0.36498988    -0.33470000
opls_238-93    N    0.41938004    0.80917990    0.29957041    -0.26160000
opls_750-94    N    0.94186000    0.48383990    0.36498988    -0.33470000
opls_238-95    N    0.19081988    0.61019987    0.29957041    -0.26160000
opls_281-96    O    0.29875002    0.56738001    0.96035032    -0.41020000
opls_281-97    O    0.43261991    0.73137004    0.96035032    -0.41020000
opls_281-98    O    0.26863007    0.70124996    0.96035032    -0.41020000
