#======================================================================
# Crystal Data Generated By AuToFF
#----------------------------------------------------------------------

data_AuToFF_phase_1

_cell_length_a                         36.7132
_cell_length_b                         36.7132
_cell_length_c                         3.8793
_cell_angle_alpha                      90.00
_cell_angle_beta                       90.00
_cell_angle_gamma                      120.00
_symmetry_space_group_name_H-M_alt     'P 1'
_symmetry_space_group_IT_number        1

loop_
_space_group_symop_operation_xyz
   'x, y, z'

loop_
   _atom_site_label
   _atom_site_type_symbol
   _atom_site_fract_x
   _atom_site_fract_y
   _atom_site_fract_z
   _atom_site_charge
opls_700-0    C    0.28994996    0.64035011    0.33172995    0.08900000
opls_145-1    C    0.31643995    0.62370009    0.33121955    -0.08960000
opls_700-2    C    0.24404007    0.61254001    0.34279123    0.07830000
opls_145-3    C    0.37615004    0.59338013    0.18248911    -0.17140000
opls_145-4    C    0.40168004    0.57610013    0.19914933    -0.17050000
opls_145-5    C    0.43948997    0.59653004    0.38154048    0.22030000
opls_145-6    C    0.45134018    0.63516023    0.53574098    -0.17340000
opls_145-7    C    0.42564991    0.65215999    0.51807027    -0.17250000
opls_142-8    C    0.45378994    0.54178010    0.39567963    0.07940000
opls_700-9    C    0.48128987    0.52442997    0.44212873    0.01040000
opls_145-10    C    0.46480997    0.48115998    0.41250999    -0.17230000
opls_145-11    C    0.48891005    0.46307010    0.47322971    -0.19360000
opls_700-12    C    0.71031993    0.35748002    0.65603073    0.09140000
opls_145-13    C    0.68596017    0.37653014    0.65621117    -0.08960000
opls_700-14    C    0.75650014    0.38309006    0.65071018    0.07820000
opls_145-15    C    0.63156019    0.41212019    0.48926095    -0.17180000
opls_145-16    C    0.60758996    0.43113004    0.47802954    -0.17210000
opls_145-17    C    0.56783002    0.41168992    0.62843039    0.21450000
opls_145-18    C    0.55277995    0.37277006    0.78754930    -0.17430000
opls_145-19    C    0.57718011    0.35425997    0.80111876    -0.17250000
opls_142-20    C    0.55690011    0.46841000    0.62630114    0.07930000
opls_700-21    C    0.53083991    0.48730003    0.57236873    0.00760000
opls_166-22    C    0.54774000    0.53053007    0.60520970    0.12950000
opls_166-23    C    0.52336995    0.54903009    0.53875957    0.13080000
opls_182-24    C    0.99045004    0.39245015    0.66369964    -0.02290000
opls_182-25    C    0.03529011    0.42288020    0.76950996    -0.02290000
opls_700-26    C    0.35965020    0.64960012    0.33172995    0.08900000
opls_145-27    C    0.37630021    0.69274020    0.33121955    -0.08960000
opls_700-28    C    0.38745999    0.63150017    0.34279123    0.07830000
opls_145-29    C    0.40662016    0.78277007    0.18248911    -0.17140000
opls_145-30    C    0.42390001    0.82558023    0.19914933    -0.17050000
opls_145-31    C    0.40347025    0.84296024    0.38154048    0.22030000
opls_145-32    C    0.36483998    0.81618019    0.53574098    -0.17340000
opls_145-33    C    0.34784001    0.77349018    0.51807027    -0.17250000
opls_142-34    C    0.45822006    0.91201010    0.39567963    0.07930000
opls_700-35    C    0.47557011    0.95686023    0.44212873    0.01040000
opls_145-36    C    0.51884010    0.98365003    0.41250999    -0.17230000
opls_145-37    C    0.53692987    0.02583996    0.47322971    -0.19370000
opls_700-38    C    0.64251989    0.35283992    0.65603073    0.09140000
opls_145-39    C    0.62347010    0.30942998    0.65621117    -0.08960000
opls_700-40    C    0.61690999    0.37341011    0.65071018    0.07820000
opls_145-41    C    0.58787993    0.21944006    0.48926095    -0.17180000
opls_145-42    C    0.56886996    0.17646006    0.47802954    -0.17210000
opls_145-43    C    0.58830987    0.15613992    0.62843039    0.21450000
opls_145-44    C    0.62723005    0.18001004    0.78754930    -0.17430000
opls_145-45    C    0.64573999    0.22291990    0.80111876    -0.17250000
opls_142-46    C    0.53158987    0.08848998    0.62630114    0.07930000
opls_700-47    C    0.51270004    0.04354015    0.57236873    0.00760000
opls_166-48    C    0.46946996    0.01720986    0.60520970    0.12950000
opls_166-49    C    0.45097007    0.97434026    0.53875957    0.13080000
opls_182-50    C    0.60755011    0.59800010    0.66369964    -0.02290000
opls_182-51    C    0.57712015    0.61241011    0.76950996    -0.02290000
opls_700-52    C    0.35040000    0.71005008    0.33172995    0.08900000
opls_145-53    C    0.30726000    0.68356002    0.33121955    -0.08960000
opls_700-54    C    0.36850010    0.75596014    0.34279123    0.07830000
opls_145-55    C    0.21722996    0.62385012    0.18248911    -0.17130000
opls_145-56    C    0.17442011    0.59831996    0.19914933    -0.17050000
opls_145-57    C    0.15703994    0.56051004    0.38154048    0.22030000
opls_145-58    C    0.18382015    0.54866021    0.53574098    -0.17330000
opls_145-59    C    0.22650997    0.57435014    0.51807027    -0.17250000
opls_142-60    C    0.08799016    0.54621011    0.39567963    0.07940000
opls_700-61    C    0.04314018    0.51871012    0.44212873    0.01040000
opls_145-62    C    0.01634993    0.53518998    0.41250999    -0.17230000
opls_145-63    C    0.97416008    0.51108995    0.47322971    -0.19370000
opls_700-64    C    0.64715990    0.28968006    0.65603073    0.09140000
opls_145-65    C    0.69057000    0.31403989    0.65621117    -0.08960000
opls_700-66    C    0.62659002    0.24350015    0.65071018    0.07860000
opls_145-67    C    0.78056004    0.36844007    0.48926095    -0.17180000
opls_145-68    C    0.82354008    0.39240990    0.47802954    -0.17210000
opls_145-69    C    0.84386010    0.43217016    0.62843039    0.21450000
opls_145-70    C    0.81999000    0.44721990    0.78754930    -0.17430000
opls_145-71    C    0.77708018    0.42282013    0.80111876    -0.17240000
opls_142-72    C    0.91151002    0.44310001    0.62630114    0.07930000
opls_700-73    C    0.95645994    0.46916013    0.57236873    0.00760000
opls_166-74    C    0.98279004    0.45226007    0.60520970    0.12950000
opls_166-75    C    0.02565986    0.47662996    0.53875957    0.13100000
opls_182-76    C    0.40200001    0.00955006    0.66369964    -0.02290000
opls_182-77    C    0.38758990    0.96471000    0.76950996    -0.02290000
opls_750-78    N    0.46762005    0.58151992    0.41156910    -0.24760000
opls_750-79    N    0.54112011    0.42843996    0.60039956    -0.25920000
opls_750-80    N    0.41848010    0.88610001    0.41156910    -0.24760000
opls_750-81    N    0.57155985    0.11267997    0.60039956    -0.25920000
opls_750-82    N    0.11390012    0.53238007    0.41156910    -0.24760000
opls_750-83    N    0.88732004    0.45888007    0.60039956    -0.25930000
opls_146-84    H    0.30316992    0.58989997    0.33300080    0.11490000
opls_146-85    H    0.34697001    0.57720000    0.03613023    0.10510000
opls_146-86    H    0.39242012    0.54676020    0.06419973    0.10820000
opls_146-87    H    0.48071001    0.65124002    0.67914057    0.10810000
opls_146-88    H    0.43505016    0.68183016    0.64787977    0.10860000
opls_144-89    H    0.42000004    0.51829999    0.35982007    0.06140000
opls_146-90    H    0.43210011    0.46171012    0.33847086    0.11130000
opls_146-91    H    0.47578988    0.42947001    0.44569123    0.11590000
opls_146-92    H    0.70114999    0.41051991    0.65506921    0.11450000
opls_146-93    H    0.66210005    0.42731996    0.36284897    0.10860000
opls_146-94    H    0.61923010    0.46084016    0.34205913    0.10830000
opls_146-95    H    0.52195996    0.35754009    0.90831078    0.11150000
opls_146-96    H    0.56521014    0.32429007    0.93326889    0.10880000
opls_144-97    H    0.59037996    0.48998005    0.68911917    0.03760000
opls_185-98    H    0.98889990    0.38275007    0.38656974    0.05320000
opls_185-99    H    0.97699999    0.36392012    0.82562060    0.06070000
opls_185-100    H    0.05538993    0.40914012    0.72610007    0.07840000
opls_185-101    H    0.03734998    0.43159993    0.04928982    0.05570000
opls_146-102    H    0.41010003    0.71327013    0.33300080    0.11480000
opls_146-103    H    0.42280000    0.76977005    0.03613023    0.10510000
opls_146-104    H    0.45324008    0.84566008    0.06419973    0.10820000
opls_146-105    H    0.34876019    0.82947020    0.67914057    0.10810000
opls_146-106    H    0.31817001    0.75322005    0.64787977    0.10860000
opls_144-107    H    0.48170002    0.90170017    0.35982007    0.06140000
opls_146-108    H    0.53829018    0.97039022    0.33847086    0.11130000
opls_146-109    H    0.57052982    0.04631987    0.44569123    0.11590000
opls_146-110    H    0.58947999    0.29062991    0.65506921    0.11450000
opls_146-111    H    0.57267997    0.23478010    0.36284897    0.10870000
opls_146-112    H    0.53916008    0.15838999    0.34205913    0.10830000
opls_146-113    H    0.64245997    0.16441995    0.90831078    0.11150000
opls_146-114    H    0.67570996    0.24092014    0.93326889    0.10870000
opls_144-115    H    0.51001984    0.10039988    0.68911917    0.03760000
opls_185-116    H    0.61724997    0.60614992    0.38656974    0.05320000
opls_185-117    H    0.63608007    0.61308004    0.82562060    0.06070000
opls_185-118    H    0.59086013    0.64625018    0.72610007    0.07840000
opls_185-119    H    0.56840002    0.60575017    0.04928982    0.05570000
opls_146-120    H    0.28673021    0.69683021    0.33300080    0.11480000
opls_146-121    H    0.23022999    0.65302995    0.03613023    0.10510000
opls_146-122    H    0.15433996    0.60758004    0.06419973    0.10820000
opls_146-123    H    0.17052996    0.51929009    0.67914057    0.10820000
opls_146-124    H    0.24677999    0.56495010    0.64787977    0.10860000
opls_144-125    H    0.09830009    0.58000016    0.35982007    0.06140000
opls_146-126    H    0.02960986    0.56789998    0.33847086    0.11130000
opls_146-127    H    0.95368002    0.52421012    0.44569123    0.11590000
opls_146-128    H    0.70937001    0.29885018    0.65506921    0.11450000
opls_146-129    H    0.76521998    0.33789994    0.36284897    0.10870000
opls_146-130    H    0.84160998    0.38077017    0.34205913    0.10830000
opls_146-131    H    0.83558007    0.47803995    0.90831078    0.11150000
opls_146-132    H    0.75908006    0.43479010    0.93326889    0.10870000
opls_144-133    H    0.89959992    0.40962007    0.68911917    0.03760000
opls_185-134    H    0.39385013    0.01110001    0.38656974    0.05320000
opls_185-135    H    0.38691994    0.02299985    0.82562060    0.06070000
opls_185-136    H    0.35375010    0.94461002    0.72610007    0.07850000
opls_185-137    H    0.39425016    0.96265021    0.04928982    0.05570000
opls_179-138    O    0.96463004    0.41086997    0.71098910    -0.20080000
opls_179-139    O    0.05173002    0.45994000    0.55931998    -0.20270000
opls_179-140    O    0.58913016    0.55376014    0.71098910    -0.20070000
opls_179-141    O    0.54006000    0.59178992    0.55931998    -0.20270000
opls_179-142    O    0.44624007    0.03536989    0.71098910    -0.20080000
opls_179-143    O    0.40820998    0.94827008    0.55931998    -0.20270000
