#======================================================================
# Crystal Data Generated By AuToFF
#----------------------------------------------------------------------

data_AuToFF_phase_1

_cell_length_a                         45.9100
_cell_length_b                         45.9100
_cell_length_c                         3.6600
_cell_angle_alpha                      90.00
_cell_angle_beta                       90.00
_cell_angle_gamma                      90.00
_symmetry_space_group_name_H-M_alt     'P 1'
_symmetry_space_group_IT_number        1

loop_
_space_group_symop_operation_xyz
   'x, y, z'

loop_
   _atom_site_label
   _atom_site_type_symbol
   _atom_site_fract_x
   _atom_site_fract_y
   _atom_site_fract_z
   _atom_site_charge
opls_543-0    C    0.02073993    0.56050011    0.47439071    0.23620000
opls_700-1    C    0.04970007    0.55427009    0.55174044    -0.05890000
opls_543-2    C    0.05831997    0.52542997    0.59196995    0.23620000
opls_716-3    C    0.08667001    0.51783010    0.67256011    -0.13690000
opls_261-4    C    0.14663995    0.34067001    0.51119945    0.28450000
opls_145-5    C    0.11246003    0.62481006    0.60151913    0.23150000
opls_700-6    C    0.07174995    0.57862993    0.57415027    0.07320000
opls_231-7    C    0.20015008    0.32909998    0.41027049    0.38690000
opls_700-8    C    0.21701002    0.27964997    0.50607104    0.14700000
opls_145-9    C    0.18876998    0.27105010    0.59686885    -0.09540000
opls_145-10    C    0.16617992    0.29141995    0.59551093    -0.09710000
opls_700-11    C    0.17153997    0.32049009    0.50272951    -0.03640000
opls_261-12    C    0.24024003    0.25876998    0.50919945    -0.07350000
opls_543-13    C    0.97457003    0.55831997    0.42939071    0.23620000
opls_716-14    C    0.08806992    0.48842997    0.64316940    -0.13690000
opls_543-15    C    0.06049989    0.47926007    0.54696995    0.23620000
opls_700-16    C    0.05427009    0.45029993    0.46963115    -0.05890000
opls_716-17    C    0.98842997    0.41193008    0.37819945    -0.13690000
opls_700-18    C    0.07862993    0.42825005    0.44719945    0.07320000
opls_145-19    C    0.06435003    0.60569005    0.72851913    -0.07790000
opls_145-20    C    0.77734001    0.69139991    0.41327049    -0.19380000
opls_716-21    C    0.58667001    0.01783010    0.34880874    -0.13690000
opls_145-22    C    0.40214006    0.12028992    0.44998907    -0.13970000
opls_145-23    C    0.37142997    0.08438009    0.73974044    -0.11560000
opls_145-24    C    0.57518994    0.89993008    0.43440984    -0.07780000
opls_145-25    C    0.61246003    0.12481006    0.41980055    0.23230000
opls_231-26    C    0.70014006    0.82908996    0.61103005    0.37280000
opls_145-27    C    0.72265999    0.80860009    0.60801093    -0.19380000
opls_700-28    C    0.71701002    0.77964997    0.51519126    0.14700000
opls_145-29    C    0.68875997    0.77105010    0.42436885    -0.09540000
opls_145-30    C    0.66617992    0.79141995    0.42575137    -0.09710000
opls_700-31    C    0.67152995    0.82049009    0.51856011    -0.02830000
opls_142-32    C    0.35336005    0.15934001    0.51010109    0.01420000
opls_261-33    C    0.74023002    0.75876998    0.51203005    -0.07300000
opls_145-34    C    0.10569005    0.43564997    0.29283060    -0.07790000
opls_145-35    C    0.12857003    0.41562993    0.28159016    -0.11560000
opls_145-36    C    0.09785994    0.37971008    0.57133880    -0.13960000
opls_145-37    C    0.07519996    0.39993008    0.58693989    -0.07780000
opls_543-38    C    0.97926007    0.43949989    0.47439071    0.23620000
opls_700-39    C    0.95029993    0.44572991    0.55174044    -0.05890000
opls_543-40    C    0.94168003    0.47457003    0.59196995    0.23620000
opls_716-41    C    0.91332999    0.48216990    0.67256011    -0.13690000
opls_261-42    C    0.85336005    0.65932999    0.51119945    0.28450000
opls_145-43    C    0.88753997    0.37518994    0.60151913    0.23150000
opls_700-44    C    0.92825005    0.42137007    0.57415027    0.07320000
opls_231-45    C    0.79984992    0.67090002    0.41027049    0.38690000
opls_700-46    C    0.78298998    0.72035003    0.50607104    0.14700000
opls_145-47    C    0.81123002    0.72894990    0.59686885    -0.09540000
opls_145-48    C    0.83382008    0.70858005    0.59551093    -0.09710000
opls_700-49    C    0.82846003    0.67950991    0.50272951    -0.03640000
opls_261-50    C    0.75975997    0.74123002    0.50919945    -0.07350000
opls_543-51    C    0.02542997    0.44168003    0.42939071    0.23620000
opls_716-52    C    0.91193008    0.51157003    0.64316940    -0.13690000
opls_543-53    C    0.93949989    0.52073993    0.54696995    0.23620000
opls_700-54    C    0.94572991    0.54970007    0.46963115    -0.05890000
opls_716-55    C    0.01157003    0.58806992    0.37819945    -0.13690000
opls_700-56    C    0.92137007    0.57174995    0.44719945    0.07320000
opls_145-57    C    0.93564997    0.39430995    0.72851913    -0.07790000
opls_145-58    C    0.22265999    0.30860009    0.41327049    -0.19380000
opls_716-59    C    0.41332999    0.98216990    0.34880874    -0.13690000
opls_145-60    C    0.59785994    0.87971008    0.44998907    -0.13960000
opls_145-61    C    0.62857003    0.91561991    0.73974044    -0.11560000
opls_145-62    C    0.42481006    0.10006992    0.43440984    -0.07780000
opls_145-63    C    0.38753997    0.87518994    0.41980055    0.23230000
opls_231-64    C    0.29985994    0.17091004    0.61103005    0.37280000
opls_145-65    C    0.27734001    0.19139991    0.60801093    -0.19380000
opls_700-66    C    0.28298998    0.22035003    0.51519126    0.14700000
opls_145-67    C    0.31124003    0.22894990    0.42436885    -0.09540000
opls_145-68    C    0.33382008    0.20858005    0.42575137    -0.09710000
opls_700-69    C    0.32847005    0.17950991    0.51856011    -0.02830000
opls_142-70    C    0.64663995    0.84065999    0.51010109    0.01420000
opls_261-71    C    0.25976998    0.24123002    0.51203005    -0.07300000
opls_145-72    C    0.89430995    0.56435003    0.29283060    -0.07790000
opls_145-73    C    0.87142997    0.58437007    0.28159016    -0.11560000
opls_145-74    C    0.90214006    0.62028992    0.57133880    -0.13960000
opls_145-75    C    0.92480004    0.60006992    0.58693989    -0.07780000
opls_543-76    C    0.43949989    0.02073993    0.47439071    0.23620000
opls_700-77    C    0.44572991    0.04970007    0.55174044    -0.05890000
opls_543-78    C    0.47457003    0.05831997    0.59196995    0.23620000
opls_716-79    C    0.48216990    0.08667001    0.67256011    -0.13690000
opls_261-80    C    0.65932999    0.14663995    0.51119945    0.28450000
opls_145-81    C    0.37518994    0.11246003    0.60151913    0.23150000
opls_700-82    C    0.42137007    0.07174995    0.57415027    0.07320000
opls_231-83    C    0.67090002    0.20015008    0.41027049    0.38690000
opls_700-84    C    0.72035003    0.21701002    0.50607104    0.14690000
opls_145-85    C    0.72894990    0.18876998    0.59686885    -0.09540000
opls_145-86    C    0.70858005    0.16617992    0.59551093    -0.09710000
opls_700-87    C    0.67950991    0.17153997    0.50272951    -0.03640000
opls_261-88    C    0.74123002    0.24024003    0.50919945    -0.07350000
opls_543-89    C    0.44168003    0.97457003    0.42939071    0.23620000
opls_716-90    C    0.51157003    0.08806992    0.64316940    -0.13690000
opls_543-91    C    0.52073993    0.06049989    0.54696995    0.23620000
opls_700-92    C    0.54970007    0.05427009    0.46963115    -0.05890000
opls_716-93    C    0.58806992    0.98842997    0.37819945    -0.13690000
opls_700-94    C    0.57174995    0.07862993    0.44719945    0.07320000
opls_145-95    C    0.39430995    0.06435003    0.72851913    -0.07800000
opls_145-96    C    0.30860009    0.77734001    0.41327049    -0.19380000
opls_716-97    C    0.98216990    0.58667001    0.34880874    -0.13690000
opls_145-98    C    0.87971008    0.40214006    0.44998907    -0.13970000
opls_145-99    C    0.91561991    0.37142997    0.73974044    -0.11560000
opls_145-100    C    0.10006992    0.57518994    0.43440984    -0.07780000
opls_145-101    C    0.87518994    0.61246003    0.41980055    0.23230000
opls_231-102    C    0.17091004    0.70014006    0.61103005    0.37280000
opls_145-103    C    0.19139991    0.72265999    0.60801093    -0.19380000
opls_700-104    C    0.22035003    0.71701002    0.51519126    0.14700000
opls_145-105    C    0.22894990    0.68875997    0.42436885    -0.09540000
opls_145-106    C    0.20858005    0.66617992    0.42575137    -0.09710000
opls_700-107    C    0.17950991    0.67152995    0.51856011    -0.02830000
opls_142-108    C    0.84065999    0.35336005    0.51010109    0.01420000
opls_261-109    C    0.24123002    0.74023002    0.51203005    -0.07300000
opls_145-110    C    0.56435003    0.10569005    0.29283060    -0.07790000
opls_145-111    C    0.58437007    0.12857003    0.28159016    -0.11560000
opls_145-112    C    0.62028992    0.09785994    0.57133880    -0.13960000
opls_145-113    C    0.60006992    0.07519996    0.58693989    -0.07780000
opls_543-114    C    0.56050011    0.97926007    0.47439071    0.23620000
opls_700-115    C    0.55427009    0.95029993    0.55174044    -0.05890000
opls_543-116    C    0.52542997    0.94168003    0.59196995    0.23620000
opls_716-117    C    0.51783010    0.91332999    0.67256011    -0.13690000
opls_261-118    C    0.34067001    0.85336005    0.51119945    0.28450000
opls_145-119    C    0.62481006    0.88753997    0.60151913    0.23150000
opls_700-120    C    0.57862993    0.92825005    0.57415027    0.07320000
opls_231-121    C    0.32909998    0.79984992    0.41027049    0.38680000
opls_700-122    C    0.27964997    0.78298998    0.50607104    0.14690000
opls_145-123    C    0.27105010    0.81123002    0.59686885    -0.09540000
opls_145-124    C    0.29141995    0.83382008    0.59551093    -0.09710000
opls_700-125    C    0.32049009    0.82846003    0.50272951    -0.03640000
opls_261-126    C    0.25876998    0.75975997    0.50919945    -0.07350000
opls_543-127    C    0.55831997    0.02542997    0.42939071    0.23620000
opls_716-128    C    0.48842997    0.91193008    0.64316940    -0.13690000
opls_543-129    C    0.47926007    0.93949989    0.54696995    0.23620000
opls_700-130    C    0.45029993    0.94572991    0.46963115    -0.05890000
opls_716-131    C    0.41193008    0.01157003    0.37819945    -0.13690000
opls_700-132    C    0.42825005    0.92137007    0.44719945    0.07320000
opls_145-133    C    0.60569005    0.93564997    0.72851913    -0.07790000
opls_145-134    C    0.69139991    0.22265999    0.41327049    -0.19380000
opls_716-135    C    0.01783010    0.41332999    0.34880874    -0.13690000
opls_145-136    C    0.12028992    0.59785994    0.44998907    -0.13980000
opls_145-137    C    0.08438009    0.62857003    0.73974044    -0.11560000
opls_145-138    C    0.89993008    0.42481006    0.43440984    -0.07780000
opls_145-139    C    0.12481006    0.38753997    0.41980055    0.23230000
opls_231-140    C    0.82908996    0.29985994    0.61103005    0.37280000
opls_145-141    C    0.80860009    0.27734001    0.60801093    -0.19380000
opls_700-142    C    0.77964997    0.28298998    0.51519126    0.14700000
opls_145-143    C    0.77105010    0.31124003    0.42436885    -0.09540000
opls_145-144    C    0.79141995    0.33382008    0.42575137    -0.09710000
opls_700-145    C    0.82049009    0.32847005    0.51856011    -0.02830000
opls_142-146    C    0.15934001    0.64663995    0.51010109    0.01420000
opls_261-147    C    0.75876998    0.25976998    0.51203005    -0.07310000
opls_145-148    C    0.43564997    0.89430995    0.29283060    -0.07790000
opls_145-149    C    0.41562993    0.87142997    0.28159016    -0.11560000
opls_145-150    C    0.37971008    0.90214006    0.57133880    -0.13960000
opls_145-151    C    0.39993008    0.92480004    0.58693989    -0.07780000
opls_542-152    N    0.99825005    0.54137007    0.49356011    -0.25750000
opls_542-153    N    0.04137007    0.50174995    0.52780055    -0.25750000
opls_750-154    N    0.85127990    0.63242997    0.40750000    -0.28540000
opls_750-155    N    0.64872010    0.86756001    0.61380874    -0.29500000
opls_542-156    N    0.00174995    0.45862993    0.49356011    -0.25750000
opls_542-157    N    0.95862993    0.49825005    0.52780055    -0.25750000
opls_750-158    N    0.14872010    0.36757003    0.40750000    -0.28550000
opls_750-159    N    0.35127990    0.13243999    0.61380874    -0.29500000
opls_542-160    N    0.45862993    0.99825005    0.49356011    -0.25750000
opls_542-161    N    0.49825005    0.04137007    0.52780055    -0.25750000
opls_750-162    N    0.36757003    0.85127990    0.40750000    -0.28540000
opls_750-163    N    0.13243999    0.64872010    0.61380874    -0.29500000
opls_542-164    N    0.54137007    0.00174995    0.49356011    -0.25750000
opls_542-165    N    0.50174995    0.95862993    0.52780055    -0.25750000
opls_750-166    N    0.63242997    0.14872010    0.40750000    -0.28540000
opls_750-167    N    0.86756001    0.35127990    0.61380874    -0.29500000
opls_272-168    O    0.20649009    0.35727990    0.31895902    -0.25010000
opls_272-169    O    0.70649009    0.85727990    0.70236885    -0.25430000
opls_272-170    O    0.79350991    0.64272010    0.31895902    -0.25010000
opls_272-171    O    0.29350991    0.14272010    0.70236885    -0.25430000
opls_272-172    O    0.64272010    0.20649009    0.31895902    -0.25010000
opls_272-173    O    0.14272010    0.70649009    0.70236885    -0.25430000
opls_272-174    O    0.35727990    0.79350991    0.31895902    -0.25010000
opls_272-175    O    0.85727990    0.29350991    0.70236885    -0.25430000
opls_547-176    H    0.10323002    0.53540993    0.74495082    0.04840000
opls_146-177    H    0.18415008    0.24739991    0.67213115    0.04840000
opls_146-178    H    0.14312002    0.28441995    0.67045902    0.04840000
opls_547-179    H    0.10950991    0.47663995    0.69627869    0.04840000
opls_547-180    H    0.97183010    0.39371008    0.34063115    0.04840000
opls_146-181    H    0.04167001    0.60924003    0.84728962    0.04840000
opls_146-182    H    0.75422000    0.68451993    0.33968033    0.04840000
opls_547-183    H    0.60323002    0.03540993    0.27642077    0.04840000
opls_146-184    H    0.40558005    0.14324003    0.33903005    0.04840000
opls_146-185    H    0.34961011    0.07770007    0.86251913    0.04840000
opls_146-186    H    0.55361011    0.89316010    0.30572951    0.04840000
opls_146-187    H    0.74578000    0.81550011    0.68157923    0.04840000
opls_146-188    H    0.68413004    0.74739991    0.34910929    0.04840000
opls_146-189    H    0.64312002    0.78441995    0.35077049    0.04840000
opls_144-190    H    0.37507994    0.16816990    0.40748087    0.02860000
opls_146-191    H    0.10924003    0.45832999    0.17404918    0.04840000
opls_146-192    H    0.15043999    0.42219996    0.15916120    0.04840000
opls_146-193    H    0.09449989    0.35673993    0.68196995    0.04840000
opls_146-194    H    0.05345001    0.39360009    0.71459016    0.04840000
opls_547-195    H    0.89676998    0.46459007    0.74495082    0.04840000
opls_146-196    H    0.81584992    0.75260009    0.67213115    0.04840000
opls_146-197    H    0.85687998    0.71558005    0.67045902    0.04840000
opls_547-198    H    0.89049009    0.52336005    0.69627869    0.04840000
opls_547-199    H    0.02816990    0.60628992    0.34063115    0.04830000
opls_146-200    H    0.95832999    0.39075997    0.84728962    0.04840000
opls_146-201    H    0.24579002    0.31548007    0.33968033    0.04840000
opls_547-202    H    0.39676998    0.96459007    0.27642077    0.04840000
opls_146-203    H    0.59441995    0.85676998    0.33903005    0.04840000
opls_146-204    H    0.65038989    0.92229993    0.86251913    0.04840000
opls_146-205    H    0.44638989    0.10683990    0.30572951    0.04840000
opls_146-206    H    0.25422000    0.18450991    0.68157923    0.04840000
opls_146-207    H    0.31586996    0.25260009    0.34910929    0.04840000
opls_146-208    H    0.35687998    0.21558005    0.35077049    0.04840000
opls_144-209    H    0.62492006    0.83183010    0.40748087    0.02860000
opls_146-210    H    0.89075997    0.54167001    0.17404918    0.04840000
opls_146-211    H    0.84956001    0.57780004    0.15916120    0.04840000
opls_146-212    H    0.90550011    0.64326007    0.68196995    0.04840000
opls_146-213    H    0.94654999    0.60639991    0.71459016    0.04840000
opls_547-214    H    0.46459007    0.10323002    0.74495082    0.04840000
opls_146-215    H    0.75260009    0.18415008    0.67213115    0.04840000
opls_146-216    H    0.71558005    0.14312002    0.67045902    0.04840000
opls_547-217    H    0.52336005    0.10950991    0.69627869    0.04840000
opls_547-218    H    0.60628992    0.97183010    0.34063115    0.04840000
opls_146-219    H    0.39075997    0.04167001    0.84728962    0.04840000
opls_146-220    H    0.31548007    0.75422000    0.33968033    0.04840000
opls_547-221    H    0.96459007    0.60323002    0.27642077    0.04840000
opls_146-222    H    0.85676998    0.40558005    0.33903005    0.04840000
opls_146-223    H    0.92229993    0.34961011    0.86251913    0.04840000
opls_146-224    H    0.10683990    0.55361011    0.30572951    0.04840000
opls_146-225    H    0.18450991    0.74578000    0.68157923    0.04840000
opls_146-226    H    0.25260009    0.68413004    0.34910929    0.04840000
opls_146-227    H    0.21558005    0.64312002    0.35077049    0.04840000
opls_144-228    H    0.83183010    0.37507994    0.40748087    0.02860000
opls_146-229    H    0.54167001    0.10924003    0.17404918    0.04840000
opls_146-230    H    0.57780004    0.15043999    0.15916120    0.04840000
opls_146-231    H    0.64326007    0.09449989    0.68196995    0.04840000
opls_146-232    H    0.60639991    0.05345001    0.71459016    0.04840000
opls_547-233    H    0.53540993    0.89676998    0.74495082    0.04840000
opls_146-234    H    0.24739991    0.81584992    0.67213115    0.04840000
opls_146-235    H    0.28441995    0.85687998    0.67045902    0.04840000
opls_547-236    H    0.47663995    0.89049009    0.69627869    0.04840000
opls_547-237    H    0.39371008    0.02816990    0.34063115    0.04840000
opls_146-238    H    0.60924003    0.95832999    0.84728962    0.04840000
opls_146-239    H    0.68451993    0.24579002    0.33968033    0.04840000
opls_547-240    H    0.03540993    0.39676998    0.27642077    0.04840000
opls_146-241    H    0.14324003    0.59441995    0.33903005    0.04840000
opls_146-242    H    0.07770007    0.65038989    0.86251913    0.04840000
opls_146-243    H    0.89316010    0.44638989    0.30572951    0.04840000
opls_146-244    H    0.81550011    0.25422000    0.68157923    0.04840000
opls_146-245    H    0.74739991    0.31586996    0.34910929    0.04840000
opls_146-246    H    0.78441995    0.35687998    0.35077049    0.04840000
opls_144-247    H    0.16816990    0.62492006    0.40748087    0.02860000
opls_146-248    H    0.45832999    0.89075997    0.17404918    0.04840000
opls_146-249    H    0.42219996    0.84956001    0.15916120    0.04830000
opls_146-250    H    0.35673993    0.90550011    0.68196995    0.04840000
opls_146-251    H    0.39360009    0.94654999    0.71459016    0.04840000
F2_Ni4+2-252    Ni    0.00000000    0.50000000    0.51068033    0.52780000
F2_Ni4+2-253    Ni    0.50000000    0.00000000    0.51068033    0.52780000
