#======================================================================
# Crystal Data Generated By AuToFF
#----------------------------------------------------------------------

data_AuToFF_phase_1

_cell_length_a                         26.3673
_cell_length_b                         26.3673
_cell_length_c                         3.5249
_cell_angle_alpha                      90.00
_cell_angle_beta                       90.00
_cell_angle_gamma                      120.00
_symmetry_space_group_name_H-M_alt     'P 1'
_symmetry_space_group_IT_number        1

loop_
_space_group_symop_operation_xyz
   'x, y, z'

loop_
   _atom_site_label
   _atom_site_type_symbol
   _atom_site_fract_x
   _atom_site_fract_y
   _atom_site_fract_z
   _atom_site_charge
opls_142-0    C    0.02093008    0.55774992    0.50000000    0.08630000
opls_142-1    C    0.44225018    0.46318002    0.50000000    0.08630000
opls_142-2    C    0.53682011    0.97907006    0.50000000    0.08630000
opls_145-3    C    0.12212017    0.63864023    0.50000000    -0.23530000
opls_145-4    C    0.36136025    0.48348022    0.50000000    -0.23530000
opls_145-5    C    0.51652018    0.87787999    0.50000000    -0.23530000
opls_145-6    C    0.18284009    0.65973002    0.50000000    -0.20740000
opls_145-7    C    0.34026990    0.52310010    0.50000000    -0.20740000
opls_145-8    C    0.47689011    0.81716025    0.50000000    -0.20740000
opls_145-9    C    0.89231003    0.41021995    0.50000000    -0.24410000
opls_145-10    C    0.58978010    0.48209024    0.50000000    -0.24410000
opls_145-11    C    0.51790987    0.10768981    0.50000000    -0.24410000
opls_145-12    C    0.83070997    0.37691983    0.50000000    -0.21120000
opls_145-13    C    0.62308002    0.45378995    0.50000000    -0.21120000
opls_145-14    C    0.54621001    0.16929023    0.50000000    -0.21120000
opls_145-15    C    0.43547023    0.89563013    0.50000000    -0.23530000
opls_145-16    C    0.10436984    0.53983994    0.50000000    -0.23530000
opls_145-17    C    0.46015994    0.56452994    0.50000000    -0.23530000
opls_145-18    C    0.39628023    0.83483025    0.50000000    -0.20740000
opls_145-19    C    0.16517012    0.56144998    0.50000000    -0.20740000
opls_145-20    C    0.43855025    0.60372021    0.50000000    -0.20740000
opls_145-21    C    0.61162006    0.11287008    0.50000000    -0.24410000
opls_145-22    C    0.88712010    0.49873986    0.50000000    -0.24410000
opls_145-23    C    0.50126012    0.38837999    0.50000000    -0.24410000
opls_145-24    C    0.63950990    0.17445998    0.50000000    -0.21120000
opls_145-25    C    0.82552996    0.46504998    0.50000000    -0.21120000
opls_145-26    C    0.53494990    0.36049004    0.50000000    -0.21120000
opls_700-27    C    0.37412987    0.72961999    0.50000000    0.05300000
opls_700-28    C    0.27038026    0.64451023    0.50000000    0.05290000
opls_700-29    C    0.35549009    0.62587022    0.50000000    0.05270000
opls_700-30    C    0.49652010    0.91840988    0.50000000    0.04800000
opls_700-31    C    0.08159013    0.57811012    0.50000000    0.04800000
opls_700-32    C    0.42189015    0.50348000    0.50000000    0.04800000
opls_700-33    C    0.41469009    0.79220005    0.50000000    0.04870000
opls_700-34    C    0.20780024    0.62248021    0.50000000    0.04870000
opls_700-35    C    0.37752002    0.58531011    0.50000000    0.05040000
opls_145-36    C    0.39263017    0.68753019    0.50000000    -0.15630000
opls_145-37    C    0.31247000    0.70509990    0.50000000    -0.15620000
opls_145-38    C    0.29489983    0.60736991    0.50000000    -0.15620000
opls_700-39    C    0.63752014    0.26955014    0.50000000    0.05270000
opls_700-40    C    0.73045018    0.36796024    0.50000000    0.05270000
opls_700-41    C    0.63204004    0.36247999    0.50000000    0.05270000
opls_145-42    C    0.55014995    0.07856009    0.50000000    0.16630000
opls_145-43    C    0.92144010    0.47159001    0.50000000    0.16640000
opls_145-44    C    0.52840995    0.44984990    0.50000000    0.16640000
opls_700-45    C    0.60851993    0.20613013    0.50000000    0.05190000
opls_700-46    C    0.79387013    0.40239022    0.50000000    0.05190000
opls_700-47    C    0.59761016    0.39148009    0.50000000    0.05190000
opls_145-48    C    0.60658000    0.30071010    0.50000000    -0.15630000
opls_145-49    C    0.69929025    0.30587022    0.50000000    -0.15630000
opls_145-50    C    0.69412997    0.39342012    0.50000000    -0.15630000
opls_750-51    N    0.98072997    0.49992008    0.50000000    -0.36370000
opls_750-52    N    0.50008014    0.48081017    0.50000000    -0.36390000
opls_750-53    N    0.51919001    0.01926012    0.50000000    -0.36390000
opls_144-54    H    0.00716989    0.58775988    0.50000000    0.09160000
opls_144-55    H    0.41223990    0.41940989    0.50000000    0.09150000
opls_144-56    H    0.58057997    0.99283023    0.50000000    0.09130000
opls_146-57    H    0.10775984    0.66826000    0.50000000    0.18720000
opls_146-58    H    0.33173979    0.43949989    0.50000000    0.18730000
opls_146-59    H    0.56049999    0.89224012    0.50000000    0.18720000
opls_146-60    H    0.20795004    0.70406989    0.50000000    0.18740000
opls_146-61    H    0.29593012    0.50387020    0.50000000    0.18740000
opls_146-62    H    0.49611995    0.79205027    0.50000000    0.18740000
opls_146-63    H    0.91619994    0.38932986    0.50000000    0.18720000
opls_146-64    H    0.61067014    0.52687023    0.50000000    0.18730000
opls_146-65    H    0.47312993    0.08379991    0.50000000    0.18720000
opls_146-66    H    0.81421992    0.33291015    0.50000000    0.18740000
opls_146-67    H    0.66708994    0.48130985    0.50000000    0.18740000
opls_146-68    H    0.51869014    0.18578001    0.50000000    0.18740000
opls_146-69    H    0.41888006    0.92341015    0.50000000    0.18720000
opls_146-70    H    0.07658998    0.49546984    0.50000000    0.18720000
opls_146-71    H    0.50452996    0.58112000    0.50000000    0.18720000
opls_146-72    H    0.35334005    0.82337008    0.50000000    0.18740000
opls_146-73    H    0.17663005    0.52996989    0.50000000    0.18740000
opls_146-74    H    0.47002990    0.64666002    0.50000000    0.18740000
opls_146-75    H    0.63677002    0.09347989    0.50000000    0.18730000
opls_146-76    H    0.90652009    0.54330001    0.50000000    0.18720000
opls_146-77    H    0.45670013    0.36323016    0.50000000    0.18720000
opls_146-78    H    0.68394985    0.19500980    0.50000000    0.18740000
opls_146-79    H    0.80498998    0.48893988    0.50000000    0.18740000
opls_146-80    H    0.51105995    0.31604988    0.50000000    0.18730000
opls_146-81    H    0.43582012    0.70273027    0.50000000    0.18750000
opls_146-82    H    0.56281995    0.27694019    0.50000000    0.18750000
opls_146-83    H    0.29727025    0.73309014    0.50000000    0.18750000
opls_146-84    H    0.72305014    0.28587000    0.50000000    0.18760000
opls_146-85    H    0.26690985    0.56418003    0.50000000    0.18750000
opls_146-86    H    0.71413002    0.43718017    0.50000000    0.18750000
