#======================================================================
# Crystal Data Generated By AuToFF
#----------------------------------------------------------------------

data_AuToFF_phase_1

_cell_length_a                         33.0864
_cell_length_b                         33.0864
_cell_length_c                         4.3493
_cell_angle_alpha                      90.00
_cell_angle_beta                       90.00
_cell_angle_gamma                      90.00
_symmetry_space_group_name_H-M_alt     'P 1'
_symmetry_space_group_IT_number        1

loop_
_space_group_symop_operation_xyz
   'x, y, z'

loop_
   _atom_site_label
   _atom_site_type_symbol
   _atom_site_fract_x
   _atom_site_fract_y
   _atom_site_fract_z
   _atom_site_charge
opls_542-0    N    0.93878996    0.50277002    0.42004920    -0.30900000
opls_542-1    N    0.00222992    0.56282007    0.45539972    -0.24130000
opls_750-2    N    0.81196987    0.70335002    0.47106891    -0.26060000
opls_542-3    N    0.06121004    0.49722998    0.42004920    -0.30900000
opls_542-4    N    0.99777008    0.43717993    0.45539972    -0.24130000
opls_750-5    N    0.18803013    0.29664998    0.47106891    -0.26060000
opls_542-6    N    0.49722998    0.93878996    0.42004920    -0.30900000
opls_542-7    N    0.43717993    0.00222992    0.45539972    -0.24130000
opls_750-8    N    0.29664998    0.81196987    0.47106891    -0.26060000
opls_542-9    N    0.50277002    0.06121004    0.42004920    -0.30900000
opls_542-10    N    0.56282007    0.99777008    0.45539972    -0.24130000
opls_750-11    N    0.70335002    0.18803013    0.47106891    -0.26060000
opls_716-12    C    0.87752007    0.52560992    0.22934035    -0.15240000
opls_716-13    C    0.87600011    0.48441988    0.22997954    -0.15240000
opls_507-14    C    0.91422004    0.47041987    0.36037063    0.20220000
opls_507-15    C    0.91666002    0.53681996    0.35942106    0.20220000
opls_716-16    C    0.02569999    0.62102012    0.65748051    -0.16140000
opls_716-17    C    0.98397015    0.62291002    0.65685053    -0.17510000
opls_543-18    C    0.96911994    0.58639985    0.51969052    0.18960000
opls_543-19    C    0.03728994    0.58331006    0.52055963    0.19080000
opls_700-20    C    0.92868006    0.57655986    0.43976042    -0.06750000
opls_700-21    C    0.07678986    0.57010010    0.44143885    -0.06780000
opls_700-22    C    0.89833013    0.60903997    0.44666038    0.07150000
opls_700-23    C    0.89039998    0.39988999    0.44941025    0.06970000
opls_145-24    C    0.14787012    0.59002007    0.57027108    -0.11090000
opls_145-25    C    0.17891007    0.61828999    0.57795047    -0.11200000
opls_700-26    C    0.17314002    0.65785005    0.46467018    0.07110000
opls_145-27    C    0.13481007    0.66792005    0.34439105    -0.13340000
opls_145-28    C    0.10370001    0.63969002    0.33707033    -0.12900000
opls_145-29    C    0.09272994    0.35189987    0.33426069    -0.12050000
opls_145-30    C    0.12153997    0.32137011    0.34219989    -0.17290000
opls_145-31    C    0.16949985    0.36781004    0.57764008    -0.17540000
opls_145-32    C    0.14060007    0.39821014    0.56825926    -0.11330000
opls_145-33    C    0.83946002    0.67115008    0.46230888    0.21710000
opls_700-34    C    0.20614996    0.68762996    0.47130113    0.06820000
opls_145-35    C    0.75320011    0.32498005    0.48825098    -0.11760000
opls_145-36    C    0.72194013    0.29695011    0.49361047    -0.11570000
opls_700-37    C    0.73014985    0.25521000    0.48574023    0.05820000
opls_145-38    C    0.77069007    0.24240987    0.46905019    -0.11600000
opls_145-39    C    0.80187993    0.27050994    0.46057986    -0.12290000
opls_142-40    C    0.77376989    0.69692986    0.50203941    0.08070000
opls_716-41    C    0.12247993    0.47439008    0.22934035    -0.15240000
opls_716-42    C    0.12399989    0.51558012    0.22997954    -0.15240000
opls_507-43    C    0.08577996    0.52958013    0.36037063    0.20220000
opls_507-44    C    0.08333998    0.46318004    0.35942106    0.20220000
opls_716-45    C    0.97430001    0.37897988    0.65748051    -0.16140000
opls_716-46    C    0.01602985    0.37708998    0.65685053    -0.17510000
opls_543-47    C    0.03088006    0.41360015    0.51969052    0.18960000
opls_543-48    C    0.96271006    0.41668994    0.52055963    0.19080000
opls_700-49    C    0.07131994    0.42344014    0.43976042    -0.06750000
opls_700-50    C    0.92321014    0.42989990    0.44143885    -0.06780000
opls_700-51    C    0.10166987    0.39096003    0.44666038    0.07150000
opls_700-52    C    0.10960002    0.60011001    0.44941025    0.06970000
opls_145-53    C    0.85212988    0.40997993    0.57027108    -0.11090000
opls_145-54    C    0.82108993    0.38171001    0.57795047    -0.11200000
opls_700-55    C    0.82685998    0.34214995    0.46467018    0.07110000
opls_145-56    C    0.86518993    0.33207995    0.34439105    -0.13340000
opls_145-57    C    0.89629999    0.36030998    0.33707033    -0.12900000
opls_145-58    C    0.90727006    0.64810013    0.33426069    -0.12050000
opls_145-59    C    0.87846003    0.67862989    0.34219989    -0.17290000
opls_145-60    C    0.83050015    0.63218996    0.57764008    -0.17540000
opls_145-61    C    0.85939993    0.60178986    0.56825926    -0.11330000
opls_145-62    C    0.16053998    0.32884992    0.46230888    0.21710000
opls_700-63    C    0.79385004    0.31237004    0.47130113    0.06820000
opls_145-64    C    0.24679989    0.67501995    0.48825098    -0.11760000
opls_145-65    C    0.27805987    0.70304989    0.49361047    -0.11570000
opls_700-66    C    0.26985015    0.74479000    0.48574023    0.05820000
opls_145-67    C    0.22930993    0.75759013    0.46905019    -0.11600000
opls_145-68    C    0.19812007    0.72949006    0.46057986    -0.12290000
opls_142-69    C    0.22623011    0.30307014    0.50203941    0.08070000
opls_716-70    C    0.47439008    0.87752007    0.22934035    -0.15240000
opls_716-71    C    0.51558012    0.87600011    0.22997954    -0.15240000
opls_507-72    C    0.52958013    0.91422004    0.36037063    0.20220000
opls_507-73    C    0.46318004    0.91666002    0.35942106    0.20220000
opls_716-74    C    0.37897988    0.02569999    0.65748051    -0.16140000
opls_716-75    C    0.37708998    0.98397015    0.65685053    -0.17510000
opls_543-76    C    0.41360015    0.96911994    0.51969052    0.18960000
opls_543-77    C    0.41668994    0.03728994    0.52055963    0.19080000
opls_700-78    C    0.42344014    0.92868006    0.43976042    -0.06750000
opls_700-79    C    0.42989990    0.07678986    0.44143885    -0.06780000
opls_700-80    C    0.39096003    0.89833013    0.44666038    0.07150000
opls_700-81    C    0.60011001    0.89039998    0.44941025    0.06970000
opls_145-82    C    0.40997993    0.14787012    0.57027108    -0.11090000
opls_145-83    C    0.38171001    0.17891007    0.57795047    -0.11200000
opls_700-84    C    0.34214995    0.17314002    0.46467018    0.07110000
opls_145-85    C    0.33207995    0.13481007    0.34439105    -0.13340000
opls_145-86    C    0.36030998    0.10370001    0.33707033    -0.12900000
opls_145-87    C    0.64810013    0.09272994    0.33426069    -0.12050000
opls_145-88    C    0.67862989    0.12153997    0.34219989    -0.17290000
opls_145-89    C    0.63218996    0.16949985    0.57764008    -0.17540000
opls_145-90    C    0.60178986    0.14060007    0.56825926    -0.11330000
opls_145-91    C    0.32884992    0.83946002    0.46230888    0.21730000
opls_700-92    C    0.31237004    0.20614996    0.47130113    0.06820000
opls_145-93    C    0.67501995    0.75320011    0.48825098    -0.11760000
opls_145-94    C    0.70304989    0.72194013    0.49361047    -0.11570000
opls_700-95    C    0.74479000    0.73014985    0.48574023    0.05820000
opls_145-96    C    0.75759013    0.77069007    0.46905019    -0.11600000
opls_145-97    C    0.72949006    0.80187993    0.46057986    -0.12290000
opls_142-98    C    0.30307014    0.77376989    0.50203941    0.08070000
opls_716-99    C    0.52560992    0.12247993    0.22934035    -0.15240000
opls_716-100    C    0.48441988    0.12399989    0.22997954    -0.15240000
opls_507-101    C    0.47041987    0.08577996    0.36037063    0.20220000
opls_507-102    C    0.53681996    0.08333998    0.35942106    0.20230000
opls_716-103    C    0.62102012    0.97430001    0.65748051    -0.16140000
opls_716-104    C    0.62291002    0.01602985    0.65685053    -0.17510000
opls_543-105    C    0.58639985    0.03088006    0.51969052    0.18960000
opls_543-106    C    0.58331006    0.96271006    0.52055963    0.19080000
opls_700-107    C    0.57655986    0.07131994    0.43976042    -0.06750000
opls_700-108    C    0.57010010    0.92321014    0.44143885    -0.06780000
opls_700-109    C    0.60903997    0.10166987    0.44666038    0.07150000
opls_700-110    C    0.39988999    0.10960002    0.44941025    0.06970000
opls_145-111    C    0.59002007    0.85212988    0.57027108    -0.11090000
opls_145-112    C    0.61828999    0.82108993    0.57795047    -0.11200000
opls_700-113    C    0.65785005    0.82685998    0.46467018    0.07110000
opls_145-114    C    0.66792005    0.86518993    0.34439105    -0.13340000
opls_145-115    C    0.63969002    0.89629999    0.33707033    -0.12900000
opls_145-116    C    0.35189987    0.90727006    0.33426069    -0.12050000
opls_145-117    C    0.32137011    0.87846003    0.34219989    -0.17290000
opls_145-118    C    0.36781004    0.83050015    0.57764008    -0.17540000
opls_145-119    C    0.39821014    0.85939993    0.56825926    -0.11330000
opls_145-120    C    0.67115008    0.16053998    0.46230888    0.21710000
opls_700-121    C    0.68762996    0.79385004    0.47130113    0.06820000
opls_145-122    C    0.32498005    0.24679989    0.48825098    -0.11760000
opls_145-123    C    0.29695011    0.27805987    0.49361047    -0.11570000
opls_700-124    C    0.25521000    0.26985015    0.48574023    0.05820000
opls_145-125    C    0.24240987    0.22930993    0.46905019    -0.11590000
opls_145-126    C    0.27050994    0.19812007    0.46057986    -0.12290000
opls_142-127    C    0.69692986    0.22623011    0.50203941    0.08070000
opls_545-128    H    0.00085987    0.53428992    0.35822086    0.30880000
opls_547-129    H    0.85451998    0.54622987    0.13778999    0.08690000
opls_547-130    H    0.85154988    0.46550002    0.13893040    0.08690000
opls_547-131    H    0.04640003    0.64353994    0.75396960    0.06450000
opls_547-132    H    0.96535011    0.64719008    0.75299933    0.10870000
opls_146-133    H    0.15290996    0.55971003    0.66705907    0.09320000
opls_146-134    H    0.20810000    0.60959004    0.67958062    0.07920000
opls_146-135    H    0.12933985    0.69825004    0.24913894    0.06620000
opls_146-136    H    0.07442998    0.64810013    0.23473892    0.11370000
opls_146-137    H    0.06276990    0.34582003    0.23361001    0.09710000
opls_146-138    H    0.11426991    0.29128010    0.24967926    0.07920000
opls_146-139    H    0.19919000    0.37421992    0.68069115    0.07920000
opls_146-140    H    0.14778005    0.42808012    0.66553928    0.08250000
opls_146-141    H    0.74583001    0.35733987    0.49415998    0.06680000
opls_146-142    H    0.69038004    0.30729000    0.50647001    0.10210000
opls_146-143    H    0.77723989    0.20985994    0.46243074    0.07130000
opls_146-144    H    0.83325989    0.25973995    0.44904008    0.07090000
opls_144-145    H    0.76042997    0.66574000    0.51657048    0.04850000
opls_545-146    H    0.99914013    0.46571008    0.35822086    0.30880000
opls_547-147    H    0.14548002    0.45377013    0.13778999    0.08690000
opls_547-148    H    0.14845012    0.53449998    0.13893040    0.08690000
opls_547-149    H    0.95359997    0.35646006    0.75396960    0.06450000
opls_547-150    H    0.03464989    0.35280992    0.75299933    0.10870000
opls_146-151    H    0.84709004    0.44028997    0.66705907    0.09320000
opls_146-152    H    0.79190000    0.39040996    0.67958062    0.07920000
opls_146-153    H    0.87066015    0.30174996    0.24913894    0.06620000
opls_146-154    H    0.92557002    0.35189987    0.23473892    0.11370000
opls_146-155    H    0.93723010    0.65417997    0.23361001    0.09710000
opls_146-156    H    0.88573009    0.70871990    0.24967926    0.07920000
opls_146-157    H    0.80081000    0.62578008    0.68069115    0.07920000
opls_146-158    H    0.85221995    0.57191988    0.66553928    0.08250000
opls_146-159    H    0.25416999    0.64266013    0.49415998    0.06680000
opls_146-160    H    0.30961996    0.69271000    0.50647001    0.10210000
opls_146-161    H    0.22276011    0.79014006    0.46243074    0.07130000
opls_146-162    H    0.16674011    0.74026005    0.44904008    0.07090000
opls_144-163    H    0.23957003    0.33426000    0.51657048    0.04850000
opls_545-164    H    0.46571008    0.00085987    0.35822086    0.30880000
opls_547-165    H    0.45377013    0.85451998    0.13778999    0.08690000
opls_547-166    H    0.53449998    0.85154988    0.13893040    0.08690000
opls_547-167    H    0.35646006    0.04640003    0.75396960    0.06450000
opls_547-168    H    0.35280992    0.96535011    0.75299933    0.10870000
opls_146-169    H    0.44028997    0.15290996    0.66705907    0.09320000
opls_146-170    H    0.39040996    0.20810000    0.67958062    0.07920000
opls_146-171    H    0.30174996    0.12933985    0.24913894    0.06620000
opls_146-172    H    0.35189987    0.07442998    0.23473892    0.11370000
opls_146-173    H    0.65417997    0.06276990    0.23361001    0.09710000
opls_146-174    H    0.70871990    0.11426991    0.24967926    0.07920000
opls_146-175    H    0.62578008    0.19919000    0.68069115    0.07920000
opls_146-176    H    0.57191988    0.14778005    0.66553928    0.08250000
opls_146-177    H    0.64266013    0.74583001    0.49415998    0.06680000
opls_146-178    H    0.69271000    0.69038004    0.50647001    0.10210000
opls_146-179    H    0.79014006    0.77723989    0.46243074    0.07130000
opls_146-180    H    0.74026005    0.83325989    0.44904008    0.07090000
opls_144-181    H    0.33426000    0.76042997    0.51657048    0.04850000
opls_545-182    H    0.53428992    0.99914013    0.35822086    0.30880000
opls_547-183    H    0.54622987    0.14548002    0.13778999    0.08690000
opls_547-184    H    0.46550002    0.14845012    0.13893040    0.08690000
opls_547-185    H    0.64353994    0.95359997    0.75396960    0.06450000
opls_547-186    H    0.64719008    0.03464989    0.75299933    0.10870000
opls_146-187    H    0.55971003    0.84709004    0.66705907    0.09320000
opls_146-188    H    0.60959004    0.79190000    0.67958062    0.07920000
opls_146-189    H    0.69825004    0.87066015    0.24913894    0.06620000
opls_146-190    H    0.64810013    0.92557002    0.23473892    0.11370000
opls_146-191    H    0.34582003    0.93723010    0.23361001    0.09710000
opls_146-192    H    0.29128010    0.88573009    0.24967926    0.07920000
opls_146-193    H    0.37421992    0.80081000    0.68069115    0.07920000
opls_146-194    H    0.42808012    0.85221995    0.66553928    0.08250000
opls_146-195    H    0.35733987    0.25416999    0.49415998    0.06680000
opls_146-196    H    0.30729000    0.30961996    0.50647001    0.10210000
opls_146-197    H    0.20985994    0.22276011    0.46243074    0.07130000
opls_146-198    H    0.25973995    0.16674011    0.44904008    0.07090000
opls_144-199    H    0.66574000    0.23957003    0.51657048    0.04850000
