#======================================================================
# Crystal Data Generated By AuToFF
#----------------------------------------------------------------------

data_AuToFF_phase_1

_cell_length_a                         28.8469
_cell_length_b                         49.4969
_cell_length_c                         4.8573
_cell_angle_alpha                      69.03
_cell_angle_beta                       55.81
_cell_angle_gamma                      85.27
_symmetry_space_group_name_H-M_alt     'P 1'
_symmetry_space_group_IT_number        1

loop_
_space_group_symop_operation_xyz
   'x, y, z'

loop_
   _atom_site_label
   _atom_site_type_symbol
   _atom_site_fract_x
   _atom_site_fract_y
   _atom_site_fract_z
   _atom_site_charge
opls_700-0    C    0.54055016    0.69080001    0.88301001    0.07920000
opls_145-1    C    0.50886011    0.71169004    0.80843988    -0.12690000
opls_145-2    C    0.67010018    0.68162000    0.35584937    -0.11390000
opls_700-3    C    0.63797025    0.65497987    0.64219081    0.07740000
opls_145-4    C    0.51201009    0.73928992    0.81862076    -0.11490000
opls_700-5    C    0.54701008    0.74671993    0.90400084    0.05510000
opls_145-6    C    0.57808020    0.72593991    0.98289925    -0.11480000
opls_145-7    C    0.57326007    0.69797995    0.98582958    -0.11330000
opls_145-8    C    0.66192999    0.63684002    0.81151001    -0.11480000
opls_145-9    C    0.71566007    0.64591989    0.71127128    -0.11610000
opls_700-10    C    0.74701028    0.67296006    0.43305948    0.00300000
opls_145-11    C    0.72409003    0.69062006    0.25279053    -0.12430000
opls_700-12    C    0.32642002    0.55707998    0.09189939    0.07150000
opls_145-13    C    0.29406007    0.53044997    0.37754992    -0.11500000
opls_145-14    C    0.23999990    0.52166987    0.47989096    -0.12590000
opls_700-15    C    0.21724016    0.53952994    0.29964890    0.00300000
opls_145-16    C    0.24879997    0.56656001    0.02235114    -0.11490000
opls_145-17    C    0.30263030    0.57540005    0.92258019    -0.11490000
opls_145-18    C    0.45566035    0.50016005    0.91945899    -0.12750000
opls_700-19    C    0.42379002    0.52115991    0.84834074    0.07930000
opls_145-20    C    0.39090992    0.51422004    0.74544052    -0.11430000
opls_145-21    C    0.38603020    0.48637992    0.74534105    -0.11590000
opls_700-22    C    0.41725017    0.46550996    0.82076070    0.05530000
opls_145-23    C    0.45249010    0.47270002    0.90576979    -0.11690000
opls_232-24    C    0.16092997    0.53036994    0.39661050    0.22890000
opls_142-25    C    0.54996018    0.77539992    0.92694880    0.07360000
opls_145-26    C    0.14332019    0.17045007    0.67799996    -0.11500000
opls_700-27    C    0.15325003    0.14858998    0.53837923    0.07690000
opls_145-28    C    0.20936989    0.14605997    0.29058101    -0.11820000
opls_145-29    C    0.25464028    0.16298007    0.21269881    -0.11480000
opls_700-30    C    0.24462998    0.18334996    0.37300119    0.06320000
opls_145-31    C    0.18856005    0.18753996    0.59898863    -0.12550000
opls_142-32    C    0.29277033    0.19864002    0.31662867    0.07170000
opls_145-33    C    0.37647027    0.21985000    0.39669921    -0.16220000
opls_145-34    C    0.32845017    0.23250994    0.43960029    0.19660000
opls_145-35    C    0.31983002    0.25856991    0.50202972    -0.16480000
opls_523-36    C    0.35835026    0.27193002    0.52060908    -0.12500000
opls_700-37    C    0.40596018    0.25911989    0.48252019    -0.00010000
opls_523-38    C    0.41465000    0.23301004    0.41849118    -0.12090000
opls_531-39    C    0.44558002    0.27227005    0.51921112    0.34730000
opls_531-40    C    0.47425001    0.30958002    0.61291979    0.34680000
opls_531-41    C    0.52339015    0.26908994    0.56440001    0.34340000
opls_523-42    C    0.57170011    0.22475001    0.55539127    -0.11610000
opls_700-43    C    0.56741011    0.25237994    0.58047111    0.00070000
opls_523-44    C    0.60458021    0.26334993    0.62955007    -0.12720000
opls_145-45    C    0.64555003    0.24716993    0.64808104    -0.16270000
opls_145-46    C    0.65038009    0.21982998    0.61755992    0.19670000
opls_145-47    C    0.61245009    0.20859994    0.57476100    -0.16450000
opls_523-48    C    0.50239003    0.34938990    0.72062951    -0.12200000
opls_700-49    C    0.46616012    0.33747009    0.67184896    -0.00010000
opls_523-50    C    0.42207003    0.35244997    0.68080124    -0.12410000
opls_145-51    C    0.41493018    0.37897006    0.73093943    -0.16430000
opls_145-52    C    0.45188009    0.39105993    0.77438087    0.19810000
opls_145-53    C    0.49515025    0.37587004    0.77149893    -0.16650000
opls_142-54    C    0.70903003    0.18104000    0.55821944    0.07220000
opls_145-55    C    0.78675020    0.17859998    0.67417978    -0.09550000
opls_700-56    C    0.75339995    0.16645990    0.58879969    0.05960000
opls_145-57    C    0.82819991    0.16350989    0.69870044    -0.12720000
opls_700-58    C    0.83827022    0.13686000    0.64573946    0.07950000
opls_145-59    C    0.80931002    0.12687998    0.53668018    -0.11820000
opls_145-60    C    0.76614007    0.14071996    0.52287000    -0.12420000
opls_142-61    C    0.41437026    0.43711998    0.79159991    0.07240000
opls_145-62    C    0.82982021    0.05007005    0.82056983    -0.12230000
opls_700-63    C    0.82392020    0.07057007    0.97253019    0.07740000
opls_145-64    C    0.76943997    0.07310001    0.24113105    -0.12650000
opls_145-65    C    0.72159024    0.05736008    0.33390954    -0.11480000
opls_700-66    C    0.72728020    0.03868997    0.16078898    0.06180000
opls_145-67    C    0.78182023    0.03471002    0.90771886    -0.12690000
opls_142-68    C    0.67574003    0.02724994    0.20730055    0.03900000
opls_145-69    C    0.59042990    0.00151003    0.20278946    -0.12240000
opls_145-70    C    0.63695008    0.98510992    0.20367931    0.18960000
opls_145-71    C    0.64074021    0.95726002    0.18939866    -0.16410000
opls_523-72    C    0.60327010    0.94409993    0.16184014    -0.11610000
opls_700-73    C    0.55993037    0.95810004    0.14733905    0.00070000
opls_523-74    C    0.55317995    0.98589989    0.16574097    -0.09500000
opls_531-75    C    0.52142018    0.94410985    0.10869098    0.34610000
opls_531-76    C    0.49297997    0.90552993    0.03140021    0.34870000
opls_531-77    C    0.44544996    0.94673006    0.04596045    0.34340000
opls_523-78    C    0.39707019    0.99098992    0.04586904    -0.12310000
opls_700-79    C    0.40224008    0.96343000    0.01706042    -0.00500000
opls_523-80    C    0.36668025    0.95231003    0.95780059    -0.12330000
opls_145-81    C    0.32621021    0.96823003    0.93048939    -0.13860000
opls_145-82    C    0.32051010    0.99702001    0.96413977    0.19820000
opls_145-83    C    0.35701013    0.00745993    0.02177046    -0.16650000
opls_523-84    C    0.46546033    0.86466004    0.93569946    -0.12330000
opls_700-85    C    0.50061015    0.87695004    0.98925994    0.00030000
opls_523-86    C    0.54313027    0.86165995    0.00131999    -0.12680000
opls_145-87    C    0.54976008    0.83450989    0.96659964    -0.16430000
opls_145-88    C    0.51387046    0.82210000    0.91809867    0.19830000
opls_145-89    C    0.47217023    0.83755992    0.90054897    -0.15880000
opls_142-90    C    0.26883001    0.03834006    0.96932027    0.01250000
opls_145-91    C    0.19135012    0.03980004    0.85323089    -0.09550000
opls_700-92    C    0.22436020    0.05249999    0.93622907    0.05970000
opls_145-93    C    0.15058995    0.05484000    0.81894067    -0.12680000
opls_700-94    C    0.14046006    0.08185004    0.86348973    0.07830000
opls_145-95    C    0.16901030    0.09232999    0.97219952    -0.11390000
opls_145-96    C    0.21179008    0.07862994    0.99253976    -0.12250000
opls_232-97    C    0.80322998    0.68236006    0.33542041    0.22890000
opls_716-98    C    0.87436996    0.09041990    0.83361113    -0.05740000
opls_716-99    C    0.10471996    0.12812998    0.66260095    -0.05740000
opls_716-100    C    0.09948992    0.09854004    0.79925102    -0.05770000
opls_716-101    C    0.87999996    0.12000986    0.69821116    -0.05770000
opls_716-102    C    0.96709011    0.10816001    0.73193950    -0.06890000
opls_716-103    C    0.01368983    0.10986997    0.74784124    -0.06890000
opls_716-104    C    0.42725028    0.55019001    0.87178874    -0.05770000
opls_716-105    C    0.53707030    0.66161988    0.86321013    -0.05770000
opls_716-106    C    0.57983029    0.64554992    0.76476993    -0.05740000
opls_716-107    C    0.38459033    0.56632991    0.97016980    -0.05740000
opls_716-108    C    0.46683006    0.59628985    0.86914069    -0.12500000
opls_716-109    C    0.49753021    0.61534998    0.86907079    -0.12500000
opls_750-110    N    0.28558007    0.21837000    0.45045864    -0.33010000
opls_520-111    N    0.48789032    0.25800002    0.51789920    -0.43280000
opls_520-112    N    0.43887016    0.29802999    0.56826051    -0.45480000
opls_520-113    N    0.51638029    0.29494997    0.61094921    -0.47000000
opls_750-114    N    0.69339002    0.20412993    0.63716086    -0.32970000
opls_750-115    N    0.44786017    0.41865996    0.81666900    -0.33010000
opls_750-116    N    0.67604027    0.99758004    0.21233050    -0.22310000
opls_520-117    N    0.48032014    0.95837003    0.09214941    -0.44890000
opls_520-118    N    0.52762008    0.91763003    0.07747895    -0.44220000
opls_520-119    N    0.45201995    0.92022998    0.01563021    -0.44890000
opls_750-120    N    0.28059989    0.01208006    0.93696031    -0.29070000
opls_750-121    N    0.51756027    0.79402001    0.88812061    -0.33010000
opls_278-122    O    0.83192018    0.70548989    0.09096115    -0.35460000
opls_278-123    O    0.13221033    0.50716005    0.63863947    -0.35450000
opls_633-124    S    0.94167003    0.14065995    0.57973987    0.08250000
opls_633-125    S    0.03923010    0.07760003    0.90336907    0.08250000
opls_633-126    S    0.04966023    0.14456001    0.62170002    0.08250000
opls_633-127    S    0.93035009    0.07358991    0.86020991    0.08250000
opls_633-128    S    0.39741015    0.60150988    0.96758089    0.08250000
opls_633-129    S    0.56706013    0.61023995    0.76946114    0.08250000
opls_633-130    S    0.47066027    0.64697998    0.97315927    0.08250000
opls_633-131    S    0.49356996    0.56461999    0.76524039    0.08260000
opls_146-132    H    0.48237028    0.70706996    0.73331864    0.12060000
opls_146-133    H    0.65324008    0.69562001    0.21512103    0.11480000
opls_146-134    H    0.48731012    0.75482991    0.75710000    0.11640000
opls_146-135    H    0.60445026    0.73107988    0.05621929    0.12060000
opls_146-136    H    0.59471017    0.68194988    0.07265063    0.11800000
opls_146-137    H    0.63857995    0.61584997    0.02581108    0.12410000
opls_146-138    H    0.73268997    0.63183001    0.85202112    0.11870000
opls_146-139    H    0.74767016    0.71144004    0.03411009    0.11640000
opls_146-140    H    0.31073007    0.51632995    0.51871915    0.11380000
opls_146-141    H    0.21620031    0.50085995    0.69836977    0.11830000
opls_146-142    H    0.23189015    0.58078995    0.88181906    0.11890000
opls_146-143    H    0.32613018    0.59640995    0.70887863    0.12370000
opls_146-144    H    0.48233005    0.50460983    0.99427107    0.12110000
opls_146-145    H    0.36928031    0.53029994    0.66114923    0.10750000
opls_146-146    H    0.35952018    0.48141995    0.67217963    0.12050000
opls_146-147    H    0.47739991    0.45707998    0.96366124    0.11640000
opls_144-148    H    0.14455011    0.54436004    0.25123934    0.10810000
opls_144-149    H    0.57796039    0.77990998    0.99178970    0.12450000
opls_146-150    H    0.10041016    0.17349999    0.85958083    0.12050000
opls_146-151    H    0.21811006    0.13024996    0.16809867    0.11380000
opls_146-152    H    0.29752993    0.15972009    0.03273902    0.11610000
opls_146-153    H    0.17951014    0.20328000    0.72436904    0.11890000
opls_144-154    H    0.33420027    0.19255006    0.16677868    0.12430000
opls_146-155    H    0.38385986    0.19928999    0.35930124    0.12030000
opls_146-156    H    0.28276000    0.26840993    0.53980945    0.12140000
opls_526-157    H    0.35029986    0.29199000    0.57083060    0.12070000
opls_526-158    H    0.45070999    0.22245002    0.38915026    0.11960000
opls_526-159    H    0.54335985    0.21543985    0.52178121    0.11890000
opls_526-160    H    0.60198008    0.28438002    0.65493908    0.12080000
opls_146-161    H    0.67376006    0.25597994    0.68641995    0.11830000
opls_146-162    H    0.61306011    0.18729991    0.56045079    0.12350000
opls_526-163    H    0.53647996    0.33832998    0.71889013    0.12140000
opls_526-164    H    0.39315997    0.34381995    0.64620993    0.11740000
opls_146-165    H    0.38043023    0.38957987    0.73538062    0.12370000
opls_146-166    H    0.52368005    0.38472007    0.80710914    0.12080000
opls_144-167    H    0.69056987    0.17212991    0.46148097    0.11860000
opls_146-168    H    0.77893009    0.19876999    0.72215113    0.11920000
opls_146-169    H    0.85106027    0.17228990    0.77196940    0.12140000
opls_146-170    H    0.82003997    0.10807008    0.46238964    0.10420000
opls_146-171    H    0.74341002    0.13170987    0.45060112    0.12070000
opls_144-172    H    0.38578011    0.43285986    0.72982106    0.11860000
opls_146-173    H    0.87152017    0.04719005    0.62013001    0.12410000
opls_146-174    H    0.76363997    0.08808011    0.36943910    0.13130000
opls_146-175    H    0.67999997    0.06093987    0.52841074    0.12210000
opls_146-176    H    0.78731003    0.02070009    0.76692869    0.11890000
opls_144-177    H    0.63593010    0.02858994    0.44970052    0.06370000
opls_146-178    H    0.56365998    0.00601988    0.45260127    0.05230000
opls_146-179    H    0.67393038    0.94565005    0.19475928    0.12210000
opls_526-180    H    0.60858000    0.92253997    0.15000054    0.11960000
opls_526-181    H    0.52011020    0.99710006    0.15404923    0.12110000
opls_526-182    H    0.42414020    0.99997989    0.09078103    0.11610000
opls_526-183    H    0.37031009    0.93129999    0.93068027    0.11770000
opls_146-184    H    0.29936017    0.95951993    0.88209059    0.11890000
opls_146-185    H    0.35581004    0.02828005    0.04811921    0.11800000
opls_526-186    H    0.43259009    0.87590984    0.92148065    0.12080000
opls_526-187    H    0.57112002    0.87055998    0.04054069    0.11830000
opls_146-188    H    0.58294036    0.82364002    0.97851989    0.12050000
opls_146-189    H    0.44449017    0.82844993    0.86077984    0.11890000
opls_144-190    H    0.29095017    0.04950002    0.02759079    0.11920000
opls_146-191    H    0.19926016    0.01941000    0.81075995    0.12060000
opls_146-192    H    0.12832017    0.04569986    0.74491091    0.12390000
opls_146-193    H    0.15875014    0.11154997    0.03882013    0.12260000
opls_146-194    H    0.23442004    0.08808007    0.06199929    0.12490000
opls_144-195    H    0.81957024    0.66866005    0.48254976    0.11310000
