#======================================================================
# Crystal Data Generated By AuToFF
#----------------------------------------------------------------------

data_AuToFF_phase_1

_cell_length_a                         30.6081
_cell_length_b                         3.6028
_cell_length_c                         29.6434
_cell_angle_alpha                      90.00
_cell_angle_beta                       120.00
_cell_angle_gamma                      90.00
_symmetry_space_group_name_H-M_alt     'P 1'
_symmetry_space_group_IT_number        1

loop_
_space_group_symop_operation_xyz
   'x, y, z'

loop_
   _atom_site_label
   _atom_site_type_symbol
   _atom_site_fract_x
   _atom_site_fract_y
   _atom_site_fract_z
   _atom_site_charge
opls_145-0    C    0.48196992    0.50000000    0.50988979    0.07970000
opls_145-1    C    0.43108989    0.50000000    0.47702978    -0.21610000
opls_145-2    C    0.39728001    0.50000000    0.49568985    -0.21540000
opls_145-3    C    0.41394983    0.50000000    0.54778992    0.09640000
opls_145-4    C    0.46449983    0.50000000    0.58076990    -0.21590000
opls_145-5    C    0.49808995    0.50000000    0.56188001    -0.21600000
opls_142-6    C    0.37786003    0.50000000    0.56676005    -0.22630000
opls_142-7    C    0.38994980    0.50000000    0.61297977    -0.22230000
opls_700-8    C    0.35568987    0.50000000    0.63513977    0.01350000
opls_260-9    C    0.37667995    0.50000000    0.68899974    -0.08170000
opls_521-10    C    0.34661995    0.50000000    0.71244986    0.15410000
opls_521-11    C    0.27412002    0.50000000    0.62910010    0.18800000
opls_700-12    C    0.30384004    0.50000000    0.60499986    -0.08180000
opls_142-13    C    0.36713999    0.50000000    0.76959980    -0.22220000
opls_142-14    C    0.21875994    0.50000000    0.59733000    -0.19400000
opls_142-15    C    0.41334981    0.50000000    0.80428982    -0.22560000
opls_145-16    C    0.43647982    0.50000000    0.86100973    0.09600000
opls_142-17    C    0.18901005    0.50000000    0.61709984    -0.15240000
opls_145-18    C    0.13370001    0.50000000    0.58313980    0.08980000
opls_145-19    C    0.48752006    0.50000000    0.88976992    -0.21600000
opls_145-20    C    0.51207991    0.50000000    0.94404981    -0.21560000
opls_145-21    C    0.48644997    0.50000000    0.97092974    0.08200000
opls_145-22    C    0.43497006    0.50000000    0.94167990    -0.21600000
opls_145-23    C    0.41010010    0.50000000    0.88717993    -0.21560000
opls_145-24    C    0.10155990    0.50000000    0.60227003    -0.21600000
opls_145-25    C    0.04913008    0.50000000    0.56982994    -0.21570000
opls_145-26    C    0.02781006    0.50000000    0.51765001    0.06770000
opls_145-27    C    0.06010995    0.50000000    0.49921003    -0.21550000
opls_145-28    C    0.11239997    0.50000000    0.53159013    -0.21550000
opls_423-29    C    0.57222000    0.50000000    0.28124014    0.25850000
opls_423-30    C    0.71860996    0.50000000    0.44947986    0.26900000
opls_145-31    C    0.51802989    0.50000000    0.49010982    0.07970000
opls_145-32    C    0.56890992    0.50000000    0.52296983    -0.21610000
opls_145-33    C    0.60271980    0.50000000    0.50430976    -0.21540000
opls_145-34    C    0.58605017    0.50000000    0.45221008    0.09640000
opls_145-35    C    0.53550017    0.50000000    0.41923010    -0.21590000
opls_145-36    C    0.50191005    0.50000000    0.43811999    -0.21600000
opls_142-37    C    0.62213997    0.50000000    0.43323995    -0.22630000
opls_142-38    C    0.61005002    0.50000000    0.38701984    -0.22230000
opls_700-39    C    0.64430994    0.50000000    0.36485984    0.01350000
opls_260-40    C    0.62331987    0.50000000    0.31099987    -0.08170000
opls_521-41    C    0.65338005    0.50000000    0.28755014    0.15410000
opls_521-42    C    0.72587998    0.50000000    0.37089990    0.18800000
opls_700-43    C    0.69615996    0.50000000    0.39500014    -0.08180000
opls_142-44    C    0.63285982    0.50000000    0.23039981    -0.22220000
opls_142-45    C    0.78124006    0.50000000    0.40267000    -0.19400000
opls_142-46    C    0.58665000    0.50000000    0.19570979    -0.22560000
opls_145-47    C    0.56352000    0.50000000    0.13898989    0.09600000
opls_142-48    C    0.81098976    0.50000000    0.38289977    -0.15240000
opls_145-49    C    0.86629980    0.50000000    0.41685981    0.08980000
opls_145-50    C    0.51247994    0.50000000    0.11023008    -0.21600000
opls_145-51    C    0.48791990    0.50000000    0.05594980    -0.21560000
opls_145-52    C    0.51354984    0.50000000    0.02906987    0.08200000
opls_145-53    C    0.56502994    0.50000000    0.05832010    -0.21600000
opls_145-54    C    0.58989990    0.50000000    0.11282007    -0.21560000
opls_145-55    C    0.89844010    0.50000000    0.39772997    -0.21600000
opls_145-56    C    0.95086992    0.50000000    0.43017006    -0.21570000
opls_145-57    C    0.97218994    0.50000000    0.48234999    0.06770000
opls_145-58    C    0.93989005    0.50000000    0.50078997    -0.21550000
opls_145-59    C    0.88760003    0.50000000    0.46840987    -0.21550000
opls_423-60    C    0.42778000    0.50000000    0.71875986    0.25850000
opls_423-61    C    0.28139004    0.50000000    0.55052014    0.26900000
opls_520-62    N    0.29644987    0.50000000    0.68165982    -0.33440000
opls_262-63    N    0.73684004    0.50000000    0.49307999    -0.33900000
opls_262-64    N    0.53138999    0.50000000    0.25764979    -0.33160000
opls_520-65    N    0.70354994    0.50000000    0.31833979    -0.33440000
opls_262-66    N    0.26315996    0.50000000    0.50692001    -0.33900000
opls_262-67    N    0.46860982    0.50000000    0.74234982    -0.33150000
opls_146-68    H    0.41754997    0.50000000    0.43715979    0.21360000
opls_146-69    H    0.35831999    0.50000000    0.46989982    0.21360000
opls_146-70    H    0.47768013    0.50000000    0.62081011    0.21360000
opls_146-71    H    0.53646001    0.50000000    0.58780988    0.21360000
opls_144-72    H    0.34075989    0.50000000    0.54147992    0.21400000
opls_144-73    H    0.42764995    0.50000000    0.63715987    0.21430000
opls_144-74    H    0.34297005    0.50000000    0.78297978    0.21400000
opls_144-75    H    0.20150989    0.50000000    0.55573011    0.08310000
opls_144-76    H    0.43688977    0.50000000    0.79108980    0.21410000
opls_144-77    H    0.20514983    0.50000000    0.65894981    0.10180000
opls_146-78    H    0.50829994    0.50000000    0.86994984    0.21430000
opls_146-79    H    0.55113995    0.50000000    0.96486008    0.21360000
opls_146-80    H    0.41423997    0.50000000    0.96083973    0.21370000
opls_146-81    H    0.37101002    0.50000000    0.86564981    0.21370000
opls_146-82    H    0.11704015    0.50000000    0.64181009    0.21360000
opls_146-83    H    0.02526981    0.50000000    0.58505980    0.21360000
opls_146-84    H    0.04489001    0.50000000    0.45984994    0.21400000
opls_146-85    H    0.13602993    0.50000000    0.51626990    0.21370000
opls_146-86    H    0.58244984    0.50000000    0.56283982    0.21360000
opls_146-87    H    0.64167982    0.50000000    0.53009979    0.21360000
opls_146-88    H    0.52231987    0.50000000    0.37918989    0.21360000
opls_146-89    H    0.46353999    0.50000000    0.41219012    0.21360000
opls_144-90    H    0.65924011    0.50000000    0.45852008    0.21400000
opls_144-91    H    0.57235005    0.50000000    0.36284013    0.21430000
opls_144-92    H    0.65702977    0.50000000    0.21701983    0.21400000
opls_144-93    H    0.79849011    0.50000000    0.44426989    0.08300000
opls_144-94    H    0.56311004    0.50000000    0.20890981    0.21410000
opls_144-95    H    0.79484998    0.50000000    0.34104980    0.10180000
opls_146-96    H    0.49170006    0.50000000    0.13005016    0.21430000
opls_146-97    H    0.44886005    0.50000000    0.03513992    0.21360000
opls_146-98    H    0.58575985    0.50000000    0.03915988    0.21370000
opls_146-99    H    0.62898979    0.50000000    0.13434980    0.21370000
opls_146-100    H    0.88295985    0.50000000    0.35818991    0.21360000
opls_146-101    H    0.97473000    0.50000000    0.41493981    0.21360000
opls_146-102    H    0.95510999    0.50000000    0.54015006    0.21400000
opls_146-103    H    0.86397007    0.50000000    0.48373010    0.21370000
