#======================================================================
# Crystal Data Generated By AuToFF
#----------------------------------------------------------------------

data_AuToFF_phase_1

_cell_length_a                         60.5891
_cell_length_b                         60.5891
_cell_length_c                         3.4482
_cell_angle_alpha                      90.00
_cell_angle_beta                       90.00
_cell_angle_gamma                      120.00
_symmetry_space_group_name_H-M_alt     'P 1'
_symmetry_space_group_IT_number        1

loop_
_space_group_symop_operation_xyz
   'x, y, z'

loop_
   _atom_site_label
   _atom_site_type_symbol
   _atom_site_fract_x
   _atom_site_fract_y
   _atom_site_fract_z
   _atom_site_charge
opls_700-0    C    0.06762005    0.56128999    0.50000000    0.02850000
opls_523-1    C    0.05075996    0.57104992    0.50000000    -0.13600000
opls_522-2    C    0.02441001    0.55495000    0.50000000    -0.16860000
opls_521-3    C    0.01421000    0.52847001    0.50000000    0.15650000
opls_521-4    C    0.05629009    0.53442008    0.50000000    0.06830000
opls_521-5    C    0.98638998    0.50989009    0.50000000    0.15650000
opls_521-6    C    0.95385005    0.46612002    0.50000000    0.06740000
opls_700-7    C    0.93418999    0.47224008    0.50000000    0.02820000
opls_523-8    C    0.94195995    0.49847994    0.50000000    -0.13270000
opls_522-9    C    0.96771010    0.51710007    0.50000000    -0.17460000
opls_141-10    C    0.09619010    0.57932009    0.50000000    0.01750000
opls_142-11    C    0.11311009    0.57076005    0.50000000    -0.10510000
opls_700-12    C    0.14179009    0.58507005    0.50000000    0.11110000
opls_141-13    C    0.90652009    0.45121008    0.50000000    0.01680000
opls_142-14    C    0.88700998    0.45624003    0.50000000    -0.10510000
opls_700-15    C    0.85860996    0.43858003    0.50000000    0.11110000
opls_145-16    C    0.15378994    0.57034001    0.50000000    -0.12780000
opls_145-17    C    0.18028007    0.58155005    0.50000000    -0.12730000
opls_700-18    C    0.19630992    0.60828999    0.50000000    0.05960000
opls_145-19    C    0.18414998    0.62302003    0.50000000    -0.13420000
opls_145-20    C    0.15760002    0.61172994    0.50000000    -0.13530000
opls_145-21    C    0.84337003    0.45001992    0.50000000    -0.12770000
opls_145-22    C    0.81680989    0.43553992    0.50000000    -0.12930000
opls_700-23    C    0.80397995    0.40862999    0.50000000    0.05980000
opls_145-24    C    0.81938989    0.39720992    0.50000000    -0.13290000
opls_145-25    C    0.84598998    0.41178006    0.50000000    -0.12740000
opls_423-26    C    0.10468999    0.60625004    0.50000000    0.22300000
opls_423-27    C    0.90179997    0.42535996    0.50000000    0.22300000
opls_700-28    C    0.22511998    0.62056995    0.50000000    0.06050000
opls_700-29    C    0.77511000    0.39279993    0.50000000    0.06050000
opls_145-30    C    0.24115998    0.64738002    0.50000000    -0.13560000
opls_523-31    C    0.26768003    0.65863999    0.50000000    -0.12260000
opls_700-32    C    0.27930003    0.64365001    0.50000000    -0.00620000
opls_523-33    C    0.26376994    0.61708997    0.50000000    -0.12260000
opls_145-34    C    0.23724997    0.60574996    0.50000000    -0.13560000
opls_145-35    C    0.76227001    0.36582005    0.50000000    -0.13600000
opls_523-36    C    0.73569009    0.35128002    0.50000000    -0.12110000
opls_700-37    C    0.72081001    0.36302007    0.50000000    -0.00620000
opls_523-38    C    0.73313994    0.38967996    0.50000000    -0.12110000
opls_145-39    C    0.75970994    0.40428993    0.50000000    -0.13560000
opls_531-40    C    0.30743998    0.65564009    0.50000000    0.32350000
opls_531-41    C    0.69260992    0.34755992    0.50000000    0.32350000
opls_700-42    C    0.43870996    0.50633008    0.50000000    0.02850000
opls_523-43    C    0.42895008    0.47971002    0.50000000    -0.13600000
opls_522-44    C    0.44504997    0.46945992    0.50000000    -0.16860000
opls_521-45    C    0.47152991    0.48573993    0.50000000    0.15650000
opls_521-46    C    0.46558010    0.52187007    0.50000000    0.06830000
opls_521-47    C    0.49010994    0.47649990    0.50000000    0.15650000
opls_521-48    C    0.53388001    0.48772996    0.50000000    0.06740000
opls_700-49    C    0.52776005    0.46194997    0.50000000    0.02820000
opls_523-50    C    0.50152003    0.44348001    0.50000000    -0.13270000
opls_522-51    C    0.48289999    0.45060995    0.50000000    -0.17460000
opls_141-52    C    0.42068005    0.51687005    0.50000000    0.01750000
opls_142-53    C    0.42924010    0.54235007    0.50000000    -0.10510000
opls_700-54    C    0.41492990    0.55671991    0.50000000    0.11110000
opls_141-55    C    0.54878999    0.45531001    0.50000000    0.01680000
opls_142-56    C    0.54376003    0.43076992    0.50000000    -0.10510000
opls_700-57    C    0.56141997    0.42003004    0.50000000    0.11110000
opls_145-58    C    0.42966001    0.58344994    0.50000000    -0.12780000
opls_145-59    C    0.41844994    0.59872998    0.50000000    -0.12730000
opls_700-60    C    0.39171009    0.58802002    0.50000000    0.05960000
opls_145-61    C    0.37697998    0.56112990    0.50000000    -0.13420000
opls_145-62    C    0.38826997    0.54587006    0.50000000    -0.13530000
opls_145-63    C    0.54997994    0.39334994    0.50000000    -0.12780000
opls_145-64    C    0.56445995    0.38126990    0.50000000    -0.12930000
opls_700-65    C    0.59137010    0.39535006    0.50000000    0.05980000
opls_145-66    C    0.60278997    0.42217996    0.50000000    -0.13290000
opls_145-67    C    0.58821997    0.43421006    0.50000000    -0.12740000
opls_423-68    C    0.39374992    0.49843992    0.50000000    0.22300000
opls_423-69    C    0.57464011    0.47644006    0.50000000    0.22300000
opls_700-70    C    0.37943000    0.60455007    0.50000000    0.06050000
opls_700-71    C    0.60720001    0.38231008    0.50000000    0.06050000
opls_145-72    C    0.35262003    0.59378008    0.50000000    -0.13560000
opls_523-73    C    0.34135992    0.60903992    0.50000000    -0.12260000
opls_700-74    C    0.35635012    0.63565007    0.50000000    -0.00620000
opls_523-75    C    0.38290997    0.64668002    0.50000000    -0.12260000
opls_145-76    C    0.39424994    0.63150003    0.50000000    -0.13560000
opls_145-77    C    0.63418003    0.39645009    0.50000000    -0.13600000
opls_523-78    C    0.64871999    0.38441007    0.50000000    -0.12110000
opls_700-79    C    0.63698004    0.35779001    0.50000000    -0.00620000
opls_523-80    C    0.61031994    0.34346000    0.50000000    -0.12110000
opls_145-81    C    0.59570992    0.35541997    0.50000000    -0.13560000
opls_531-82    C    0.34435988    0.65179992    0.50000000    0.32350000
opls_531-83    C    0.65244003    0.34505000    0.50000000    0.32350000
opls_700-84    C    0.49366999    0.93237993    0.50000000    0.02850000
opls_523-85    C    0.52028996    0.94924007    0.50000000    -0.13600000
opls_522-86    C    0.53054002    0.97559008    0.50000000    -0.16860000
opls_521-87    C    0.51426009    0.98579005    0.50000000    0.15650000
opls_521-88    C    0.47813008    0.94371004    0.50000000    0.06830000
opls_521-89    C    0.52350008    0.01361000    0.50000000    0.15650000
opls_521-90    C    0.51226993    0.04615002    0.50000000    0.06740000
opls_700-91    C    0.53804996    0.06580995    0.50000000    0.02820000
opls_523-92    C    0.55652002    0.05804005    0.50000000    -0.13270000
opls_522-93    C    0.54938991    0.03228998    0.50000000    -0.17460000
opls_141-94    C    0.48312995    0.90381005    0.50000000    0.01750000
opls_142-95    C    0.45765007    0.88689008    0.50000000    -0.10510000
opls_700-96    C    0.44328001    0.85821004    0.50000000    0.11110000
opls_141-97    C    0.54468992    0.09347991    0.50000000    0.01680000
opls_142-98    C    0.56922999    0.11299005    0.50000000    -0.10510000
opls_700-99    C    0.57996990    0.14138993    0.50000000    0.11110000
opls_145-100    C    0.41655005    0.84621005    0.50000000    -0.12780000
opls_145-101    C    0.40126999    0.81971996    0.50000000    -0.12720000
opls_700-102    C    0.41197999    0.80368999    0.50000000    0.05960000
opls_145-103    C    0.43887004    0.81585007    0.50000000    -0.13420000
opls_145-104    C    0.45413001    0.84240000    0.50000000    -0.13530000
opls_145-105    C    0.60664994    0.15662995    0.50000000    -0.12780000
opls_145-106    C    0.61873007    0.18318999    0.50000000    -0.12930000
opls_700-107    C    0.60464995    0.19601995    0.50000000    0.05980000
opls_145-108    C    0.57782005    0.18060993    0.50000000    -0.13290000
opls_145-109    C    0.56578998    0.15401007    0.50000000    -0.12740000
opls_423-110    C    0.50156010    0.89531004    0.50000000    0.22300000
opls_423-111    C    0.52355992    0.09819998    0.50000000    0.22310000
opls_700-112    C    0.39545001    0.77487998    0.50000000    0.06050000
opls_700-113    C    0.61769000    0.22488999    0.50000000    0.06050000
opls_145-114    C    0.40621999    0.75883991    0.50000000    -0.13560000
opls_523-115    C    0.39096005    0.73232009    0.50000000    -0.12250000
opls_700-116    C    0.36435002    0.72069992    0.50000000    -0.00620000
opls_523-117    C    0.35331993    0.73623001    0.50000000    -0.12260000
opls_145-118    C    0.36850008    0.76275002    0.50000000    -0.13560000
opls_145-119    C    0.60355006    0.23773005    0.50000000    -0.13600000
opls_523-120    C    0.61558993    0.26430990    0.50000000    -0.12110000
opls_700-121    C    0.64220995    0.27918993    0.50000000    -0.00620000
opls_523-122    C    0.65653995    0.26686004    0.50000000    -0.12110000
opls_145-123    C    0.64457988    0.24028991    0.50000000    -0.13560000
opls_531-124    C    0.34819998    0.69255999    0.50000000    0.32350000
opls_531-125    C    0.65495005    0.30739008    0.50000000    0.32350000
opls_520-126    N    0.03053996    0.51922998    0.50000000    -0.30830000
opls_520-127    N    0.97875004    0.48465001    0.50000000    -0.30920000
opls_520-128    N    0.31858999    0.64097999    0.50000000    -0.49830000
opls_520-129    N    0.67828996    0.35908004    0.50000000    -0.49950000
opls_753-130    N    0.11091007    0.62770007    0.50000000    -0.30720000
opls_753-131    N    0.89860998    0.40485004    0.50000000    -0.30740000
opls_520-132    N    0.48077003    0.51130991    0.50000000    -0.30820000
opls_520-133    N    0.51535010    0.49410006    0.50000000    -0.30920000
opls_520-134    N    0.35902004    0.67761003    0.50000000    -0.49830000
opls_520-135    N    0.64091994    0.31920997    0.50000000    -0.49950000
opls_753-136    N    0.37229996    0.48321000    0.50000000    -0.30740000
opls_753-137    N    0.59515010    0.49376006    0.50000000    -0.30740000
opls_520-138    N    0.48868991    0.96945992    0.50000000    -0.30830000
opls_520-139    N    0.50590002    0.02124993    0.50000000    -0.30910000
opls_520-140    N    0.32238998    0.68140998    0.50000000    -0.49830000
opls_520-141    N    0.68078993    0.32170999    0.50000000    -0.49960000
opls_753-142    N    0.51678997    0.88908993    0.50000000    -0.30740000
opls_753-143    N    0.50624002    0.10139008    0.50000000    -0.30740000
opls_526-144    H    0.05770998    0.59132008    0.50000000    0.11620000
opls_525-145    H    0.01256995    0.56357999    0.50000000    0.11000000
opls_524-146    H    0.06720003    0.52486007    0.50000000    0.09730000
opls_524-147    H    0.94970992    0.44657997    0.50000000    0.11610000
opls_526-148    H    0.92873999    0.50544999    0.50000000    0.09810000
opls_525-149    H    0.97247996    0.53680003    0.50000000    0.11000000
opls_144-150    H    0.10553987    0.55052990    0.50000000    0.10270000
opls_144-151    H    0.89184000    0.47585994    0.50000000    0.10270000
opls_146-152    H    0.18752993    0.56856991    0.50000000    0.11790000
opls_146-153    H    0.19459992    0.64350993    0.50000000    0.21900000
opls_146-154    H    0.80693003    0.44615993    0.50000000    0.08810000
opls_146-155    H    0.81151995    0.37689002    0.50000000    0.21900000
opls_146-156    H    0.14255994    0.54971994    0.50000000    0.10940000
opls_146-157    H    0.15042996    0.62463995    0.50000000    0.10540000
opls_146-158    H    0.85205002    0.47059005    0.50000000    0.10960000
opls_146-159    H    0.85577993    0.40120999    0.50000000    0.23630000
opls_146-160    H    0.23389996    0.66035006    0.50000000    0.11790000
opls_526-161    H    0.27908009    0.67924005    0.50000000    0.11260000
opls_526-162    H    0.27209007    0.60489006    0.50000000    0.10840000
opls_146-163    H    0.22683007    0.58526005    0.50000000    0.21900000
opls_146-164    H    0.77215994    0.35520995    0.50000000    0.08810000
opls_526-165    H    0.72682996    0.33071008    0.50000000    0.11120000
opls_526-166    H    0.72225006    0.39942007    0.50000000    0.10840000
opls_146-167    H    0.76754003    0.42461003    0.50000000    0.11790000
opls_526-168    H    0.40868007    0.46639007    0.50000000    0.11620000
opls_525-169    H    0.43642010    0.44899003    0.50000000    0.11000000
opls_524-170    H    0.47514000    0.54233997    0.50000000    0.09730000
opls_524-171    H    0.55341999    0.50313007    0.50000000    0.11600000
opls_526-172    H    0.49455005    0.42329008    0.50000000    0.09810000
opls_525-173    H    0.46319997    0.43568000    0.50000000    0.11000000
opls_144-174    H    0.44946994    0.55501003    0.50000000    0.10270000
opls_144-175    H    0.52413996    0.41598004    0.50000000    0.10270000
opls_146-176    H    0.43142996    0.61895993    0.50000000    0.11790000
opls_146-177    H    0.35648993    0.55109002    0.50000000    0.21900000
opls_146-178    H    0.55384001    0.36077009    0.50000000    0.08810000
opls_146-179    H    0.62310989    0.43462991    0.50000000    0.21900000
opls_146-180    H    0.45027999    0.59283995    0.50000000    0.10940000
opls_146-181    H    0.37535999    0.52579009    0.50000000    0.10540000
opls_146-182    H    0.52941002    0.38145991    0.50000000    0.10960000
opls_146-183    H    0.59878993    0.45456999    0.50000000    0.23630000
opls_146-184    H    0.33964999    0.57354993    0.50000000    0.11790000
opls_526-185    H    0.32076001    0.59983991    0.50000000    0.11260000
opls_526-186    H    0.39511009    0.66720003    0.50000000    0.10840000
opls_146-187    H    0.41474003    0.64157003    0.50000000    0.21900000
opls_146-188    H    0.64478999    0.41695009    0.50000000    0.08810000
opls_526-189    H    0.66928998    0.39612000    0.50000000    0.11120000
opls_526-190    H    0.60057998    0.32283002    0.50000000    0.10840000
opls_146-191    H    0.57538996    0.34293000    0.50000000    0.11790000
opls_526-192    H    0.53361005    0.94229003    0.50000000    0.11620000
opls_525-193    H    0.55100995    0.98742999    0.50000000    0.11000000
opls_524-194    H    0.45765996    0.93279997    0.50000000    0.09730000
opls_524-195    H    0.49686993    0.05028997    0.50000000    0.11600000
opls_526-196    H    0.57670996    0.07125994    0.50000000    0.09810000
opls_525-197    H    0.56431991    0.02751998    0.50000000    0.11000000
opls_144-198    H    0.44499002    0.89446006    0.50000000    0.10280000
opls_144-199    H    0.58402005    0.10816002    0.50000000    0.10270000
opls_146-200    H    0.38104002    0.81246996    0.50000000    0.11790000
opls_146-201    H    0.44890999    0.80540005    0.50000000    0.21900000
opls_146-202    H    0.63922996    0.19306998    0.50000000    0.08810000
opls_146-203    H    0.56536999    0.18848008    0.50000000    0.21900000
opls_146-204    H    0.40715997    0.85743992    0.50000000    0.10940000
opls_146-205    H    0.47421004    0.84956996    0.50000000    0.10540000
opls_146-206    H    0.61853997    0.14795004    0.50000000    0.10960000
opls_146-207    H    0.54542997    0.14422003    0.50000000    0.23640000
opls_146-208    H    0.42645006    0.76610001    0.50000000    0.11790000
opls_526-209    H    0.40016006    0.72092004    0.50000000    0.11260000
opls_526-210    H    0.33280001    0.72790990    0.50000000    0.10840000
opls_146-211    H    0.35842989    0.77316992    0.50000000    0.21900000
opls_146-212    H    0.58304991    0.22783996    0.50000000    0.08810000
opls_526-213    H    0.60387990    0.27316992    0.50000000    0.11110000
opls_526-214    H    0.67716996    0.27774991    0.50000000    0.10840000
opls_146-215    H    0.65707001    0.23245997    0.50000000    0.11790000
