#======================================================================
# Crystal Data Generated By AuToFF
#----------------------------------------------------------------------

data_AuToFF_phase_1

_cell_length_a                         23.8348
_cell_length_b                         23.5803
_cell_length_c                         7.0348
_cell_angle_alpha                      87.36
_cell_angle_beta                       83.17
_cell_angle_gamma                      120.00
_symmetry_space_group_name_H-M_alt     'P 1'
_symmetry_space_group_IT_number        1

loop_
_space_group_symop_operation_xyz
   'x, y, z'

loop_
   _atom_site_label
   _atom_site_type_symbol
   _atom_site_fract_x
   _atom_site_fract_y
   _atom_site_fract_z
   _atom_site_charge
opls_700-0    C    0.43651977    0.48172980    0.81550939    0.02770000
opls_700-1    C    0.44541005    0.42835011    0.77493992    -0.01290000
opls_700-2    C    0.50915980    0.43957003    0.71465048    0.02210000
opls_700-3    C    0.56341002    0.50550972    0.67333953    0.01950000
opls_700-4    C    0.55417012    0.55889996    0.71282995    0.01550000
opls_700-5    C    0.49169985    0.54657005    0.79581971    0.03020000
opls_145-6    C    0.37211010    0.46923011    0.86467947    -0.14800000
opls_700-7    C    0.31779971    0.40554984    0.88456967    0.00830000
opls_700-8    C    0.32657006    0.35150001    0.85757913    -0.09920000
opls_700-9    C    0.39020024    0.36326009    0.79637943    0.01640000
opls_700-10    C    0.39853971    0.30974969    0.75826955    -0.14010000
opls_700-11    C    0.46264980    0.31950973    0.72835925    0.02620000
opls_145-12    C    0.51668996    0.38417012    0.70457988    -0.18160000
opls_700-13    C    0.60744007    0.62512001    0.66748989    0.01870000
opls_700-14    C    0.59847976    0.67810975    0.71050020    -0.12120000
opls_700-15    C    0.53918996    0.66450974    0.82643976    0.02620000
opls_145-16    C    0.48667021    0.59926002    0.86352974    -0.18000000
opls_145-17    C    0.62674011    0.52001011    0.59268962    -0.18520000
opls_700-18    C    0.67947019    0.58482005    0.55130942    0.03140000
opls_700-19    C    0.66942997    0.63824999    0.57831006    -0.12340000
opls_700-20    C    0.25290008    0.39963997    0.90797973    0.06280000
opls_700-21    C    0.53188997    0.71499985    0.92943945    0.06410000
opls_700-22    C    0.74539011    0.59380989    0.49853002    0.06390000
opls_700-23    C    0.47546013    0.26415005    0.75635958    0.06500000
opls_145-24    C    0.23062011    0.41901977    0.07195985    -0.12550000
opls_145-25    C    0.17666998    0.42757996    0.07497050    -0.12650000
opls_700-26    C    0.14589994    0.41861995    0.91185016    0.04900000
opls_145-27    C    0.16588976    0.39537996    0.75244011    -0.12640000
opls_145-28    C    0.21891004    0.38557983    0.75117930    -0.12380000
opls_145-29    C    0.43837998    0.21398992    0.91122985    -0.12410000
opls_145-30    C    0.46046975    0.17306985    0.97484009    -0.12660000
opls_700-31    C    0.51983975    0.18097000    0.88355987    0.05300000
opls_145-32    C    0.55360975    0.22595992    0.71654025    -0.12580000
opls_145-33    C    0.53169988    0.26746990    0.65368015    -0.13830000
opls_145-34    C    0.58249016    0.76025003    0.02181026    -0.12760000
opls_145-35    C    0.57386988    0.80338985    0.13301962    -0.13400000
opls_700-36    C    0.51433021    0.80254994    0.15420957    0.05190000
opls_145-37    C    0.46317994    0.75721996    0.06466043    -0.12670000
opls_145-38    C    0.47197985    0.71409985    0.95234029    -0.13690000
opls_145-39    C    0.76076021    0.57012007    0.33297029    -0.13100000
opls_145-40    C    0.81912008    0.56907008    0.30073023    -0.12550000
opls_700-41    C    0.86182020    0.59020996    0.43649940    0.04900000
opls_145-42    C    0.84809984    0.61735984    0.59677931    -0.12650000
opls_145-43    C    0.79015002    0.61905005    0.62765037    -0.12760000
opls_234-44    C    0.27078015    0.28193014    0.89865927    0.40930000
opls_234-45    C    0.33886011    0.24442992    0.75155004    0.41010000
opls_234-46    C    0.72142988    0.70796005    0.50466961    0.41120000
opls_234-47    C    0.65137994    0.74663960    0.62947955    0.40930000
opls_258-48    C    0.76637976    0.82886966    0.46957037    0.10140000
opls_142-49    C    0.50816984    0.85438962    0.24498922    0.06510000
opls_142-50    C    0.09867006    0.44077012    0.90088949    0.07270000
opls_142-51    C    0.54710983    0.14340007    0.96459927    0.06600000
opls_142-52    C    0.91464988    0.57490964    0.42465010    0.06860000
opls_145-53    C    0.99333984    0.50998986    0.47352014    -0.17930000
opls_145-54    C    0.02867995    0.47993000    0.51857024    -0.17720000
opls_145-55    C    0.05002017    0.48445005    0.69678999    0.18150000
opls_145-56    C    0.03794998    0.52177996    0.82818960    -0.18020000
opls_145-57    C    0.00274017    0.55188004    0.78314960    -0.17300000
opls_145-58    C    0.97987988    0.54600003    0.60708938    0.17450000
opls_145-59    C    0.49761981    0.02001989    0.36232952    -0.17970000
opls_145-60    C    0.50533004    0.96602990    0.40310961    -0.17880000
opls_145-61    C    0.56137024    0.96642005    0.31286948    0.18130000
opls_145-62    C    0.61372014    0.02469998    0.20956974    -0.17480000
opls_145-63    C    0.60560026    0.07827024    0.16624928    -0.18170000
opls_145-64    C    0.54512025    0.07353018    0.23024036    0.18410000
opls_258-65    C    0.21848000    0.16339980    0.85666021    0.10060000
opls_136-66    C    0.74768012    0.86826995    0.33261974    -0.22070000
opls_136-67    C    0.80234998    0.94085969    0.26695961    -0.15840000
opls_136-68    C    0.79056981    0.98784962    0.38703935    -0.15550000
opls_136-69    C    0.85001007    0.05798989    0.34560001    -0.15170000
opls_136-70    C    0.83652980    0.10440987    0.46176028    -0.13240000
opls_135-71    C    0.89647016    0.17408004    0.42467030    -0.42150000
opls_136-72    C    0.79341984    0.86209974    0.64805988    -0.22160000
opls_136-73    C    0.81621994    0.82233998    0.76436009    -0.15750000
opls_136-74    C    0.86708994    0.86545996    0.88684028    -0.15190000
opls_136-75    C    0.88485970    0.82322965    0.00987008    -0.15230000
opls_136-76    C    0.93620986    0.86571975    0.13205021    -0.13280000
opls_135-77    C    0.94800986    0.82175959    0.26844978    -0.42150000
opls_136-78    C    0.19410011    0.14921012    0.66107045    -0.21880000
opls_136-79    C    0.16038994    0.18802999    0.61306019    -0.15560000
opls_136-80    C    0.12965014    0.16776999    0.43050983    -0.15230000
opls_136-81    C    0.10595020    0.21401006    0.36536037    -0.15540000
opls_136-82    C    0.06377004    0.18651997    0.20747945    -0.13140000
opls_135-83    C    0.05548999    0.24004011    0.10684991    -0.42150000
opls_136-84    C    0.23095012    0.10979995    0.94158014    -0.22070000
opls_136-85    C    0.16640993    0.04401984    0.02023064    -0.15800000
opls_136-86    C    0.17021982    0.98308974    0.96920973    -0.15820000
opls_136-87    C    0.16986974    0.97382964    0.75317005    -0.15860000
opls_136-88    C    0.10134981    0.94435973    0.69540945    -0.13650000
opls_135-89    C    0.06190013    0.86916981    0.74240990    -0.42140000
opls_700-90    C    0.42269016    0.42330989    0.28973927    0.01720000
opls_700-91    C    0.46774011    0.40139010    0.24218054    0.02450000
opls_700-92    C    0.53598986    0.44710993    0.18836969    0.01930000
opls_700-93    C    0.55910986    0.51556007    0.17976042    0.01960000
opls_700-94    C    0.51547988    0.53680010    0.25287000    0.02490000
opls_700-95    C    0.44714985    0.49117977    0.30676018    0.01540000
opls_145-96    C    0.35474008    0.37596000    0.32130997    -0.12590000
opls_145-97    C    0.33250985    0.30922003    0.31577049    -0.09990000
opls_145-98    C    0.37688015    0.28746999    0.28629008    -0.14190000
opls_700-99    C    0.44430990    0.33283000    0.25116921    0.08470000
opls_145-100    C    0.48863011    0.31039999    0.22635984    -0.14210000
opls_145-101    C    0.55543007    0.35488995    0.17349965    -0.09950000
opls_145-102    C    0.57907020    0.42241005    0.15285932    -0.13560000
opls_700-103    C    0.54078993    0.60440012    0.27415949    0.08410000
opls_145-104    C    0.49909001    0.62578002    0.35468966    -0.13370000
opls_145-105    C    0.43214024    0.58152014    0.40556920    -0.09890000
opls_145-106    C    0.40615001    0.51517999    0.38125031    -0.13970000
opls_145-107    C    0.62488012    0.56394976    0.10383926    -0.12650000
opls_145-108    C    0.64890986    0.63013990    0.12457047    -0.10020000
opls_145-109    C    0.60773961    0.64975961    0.21658064    -0.13760000
opls_146-110    H    0.36233024    0.50912013    0.87538913    0.11130000
opls_146-111    H    0.56468995    0.38992998    0.69405920    0.10830000
opls_146-112    H    0.44330018    0.58952008    0.95992966    0.10570000
opls_146-113    H    0.63695992    0.48173001    0.55779956    0.09370000
opls_146-114    H    0.25710989    0.43075981    0.19268010    0.10870000
opls_146-115    H    0.16185016    0.44549995    0.19898991    0.10590000
opls_146-116    H    0.14230007    0.38775977    0.62589908    0.10460000
opls_146-117    H    0.23589978    0.37079968    0.62391987    0.11100000
opls_146-118    H    0.39492969    0.20959970    0.99371038    0.11450000
opls_146-119    H    0.43268992    0.13711991    0.10096999    0.10650000
opls_146-120    H    0.59862997    0.23127975    0.64090040    0.10580000
opls_146-121    H    0.56073001    0.30462984    0.53155051    0.11240000
opls_146-122    H    0.62968002    0.76354982    0.00337995    0.11420000
opls_146-123    H    0.61432009    0.83887978    0.19789933    0.11140000
opls_146-124    H    0.41723015    0.75676992    0.07610003    0.10700000
opls_146-125    H    0.43225988    0.68051997    0.88130945    0.10730000
opls_146-126    H    0.72635990    0.54994977    0.23369965    0.10350000
opls_146-127    H    0.82880003    0.54776966    0.17675987    0.10590000
opls_146-128    H    0.88064978    0.63408984    0.70283004    0.10880000
opls_146-129    H    0.77865971    0.63731965    0.75622975    0.10570000
opls_140-130    H    0.80834009    0.82895000    0.38069059    0.08710000
opls_144-131    H    0.46255977    0.85417974    0.24515945    0.10410000
opls_144-132    H    0.07839005    0.45092982    0.03183902    0.11020000
opls_144-133    H    0.58237998    0.13677007    0.87099939    0.09940000
opls_144-134    H    0.92726971    0.55887969    0.29323030    0.11200000
opls_146-135    H    0.97566974    0.50332978    0.33733984    0.11040000
opls_146-136    H    0.03883010    0.45206988    0.41603939    0.10870000
opls_146-137    H    0.05607989    0.52861983    0.96382028    0.10960000
opls_146-138    H    0.99224995    0.57934958    0.88641039    0.10900000
opls_146-139    H    0.45172993    0.01728984    0.41583021    0.10890000
opls_146-140    H    0.46540996    0.92185980    0.48918936    0.11150000
opls_146-141    H    0.65731009    0.02530015    0.14227950    0.10860000
opls_146-142    H    0.64419001    0.12086975    0.07131069    0.11120000
opls_140-143    H    0.17785992    0.16014985    0.96170979    0.08710000
opls_140-144    H    0.70243003    0.86738003    0.39537021    0.09420000
opls_140-145    H    0.73525018    0.84185989    0.20315029    0.10170000
opls_140-146    H    0.80186000    0.95401959    0.11311933    0.11620000
opls_140-147    H    0.85176000    0.94774966    0.27369930    0.11250000
opls_140-148    H    0.78042994    0.97055997    0.54393932    0.11260000
opls_140-149    H    0.74610003    0.98784995    0.35213054    0.12240000
opls_140-150    H    0.86069012    0.07558001    0.18852982    0.11620000
opls_140-151    H    0.89388994    0.05806978    0.38549003    0.10550000
opls_140-152    H    0.82474993    0.08644017    0.61896031    0.12240000
opls_140-153    H    0.79317008    0.10529986    0.42028921    0.11770000
opls_140-154    H    0.90906013    0.19311003    0.26868059    0.10440000
opls_140-155    H    0.93956984    0.17464984    0.47230982    0.15570000
opls_140-156    H    0.88615992    0.20799998    0.50638915    0.15570000
opls_140-157    H    0.75490981    0.86651964    0.74066006    0.10140000
opls_140-158    H    0.83576000    0.91262979    0.60021985    0.10330000
opls_140-159    H    0.83831985    0.80051003    0.66515004    0.11770000
opls_140-160    H    0.77253995    0.78028993    0.85770031    0.11620000
opls_140-161    H    0.84682017    0.88948000    0.98157979    0.10630000
opls_140-162    H    0.91213002    0.90497970    0.79123954    0.11620000
opls_140-163    H    0.90442005    0.79835987    0.91525030    0.11250000
opls_140-164    H    0.83981007    0.78335981    0.10498034    0.11770000
opls_140-165    H    0.91937020    0.89448005    0.21808957    0.11260000
opls_140-166    H    0.98308984    0.90182985    0.03659951    0.11010000
opls_140-167    H    0.96603992    0.79328998    0.18616977    0.15570000
opls_140-168    H    0.90173993    0.78575998    0.36682025    0.10070000
opls_140-169    H    0.98517000    0.85237971    0.35764982    0.15820000
opls_140-170    H    0.15852979    0.09580001    0.66444030    0.10630000
opls_140-171    H    0.23626002    0.16202015    0.54601951    0.10170000
opls_140-172    H    0.19669004    0.24195983    0.59566997    0.10550000
opls_140-173    H    0.12123988    0.17862005    0.73508019    0.11040000
opls_140-174    H    0.08775979    0.11591983    0.46010998    0.11040000
opls_140-175    H    0.16648983    0.17004990    0.31183948    0.12240000
opls_140-176    H    0.14968011    0.26361976    0.30947943    0.11700000
opls_140-177    H    0.07670984    0.22043013    0.48923985    0.11040000
opls_140-178    H    0.01491986    0.14345014    0.27144024    0.10550000
opls_140-179    H    0.08768001    0.16921007    0.09811946    0.10550000
opls_140-180    H    0.03618002    0.26226001    0.21254000    0.15570000
opls_140-181    H    0.02123011    0.21913018    0.00152047    0.15830000
opls_140-182    H    0.10384002    0.27977016    0.02672943    0.10270000
opls_140-183    H    0.25956999    0.12880012    0.06096023    0.10170000
opls_140-184    H    0.26300973    0.10197977    0.83166043    0.09370000
opls_140-185    H    0.12298016    0.04198994    0.97043015    0.07830000
opls_140-186    H    0.15678986    0.04124998    0.18027974    0.11040000
opls_140-187    H    0.12855968    0.93819976    0.05831023    0.11250000
opls_140-188    H    0.21580005    0.98750973    0.01084959    0.11000000
opls_140-189    H    0.19023987    0.94142956    0.71768998    0.11040000
opls_140-190    H    0.20368979    0.02158985    0.66164026    0.07830000
opls_140-191    H    0.10708993    0.95700002    0.53685917    0.12250000
opls_140-192    H    0.07373981    0.96634963    0.76608973    0.10170000
opls_140-193    H    0.08709987    0.84646991    0.66191002    0.10440000
opls_140-194    H    0.01257998    0.84930960    0.70030986    0.15820000
opls_140-195    H    0.05509988    0.85398981    0.89904011    0.15800000
opls_146-196    H    0.31760013    0.38923005    0.34447047    0.08750000
opls_146-197    H    0.28041003    0.27399019    0.33478937    0.11180000
opls_146-198    H    0.35840012    0.23499987    0.29179926    0.10880000
opls_146-199    H    0.47147014    0.25821010    0.24966027    0.11150000
opls_146-200    H    0.58924991    0.33683983    0.15074018    0.10810000
opls_146-201    H    0.63159001    0.45414989    0.11768940    0.10810000
opls_146-202    H    0.51834982    0.67691984    0.37785016    0.10570000
opls_146-203    H    0.40020000    0.59855977    0.46748009    0.10570000
opls_146-204    H    0.35424004    0.48334981    0.43085028    0.09370000
opls_146-205    H    0.65840988    0.55186995    0.02553931    0.09440000
opls_146-206    H    0.70029015    0.66612997    0.07446993    0.11020000
opls_146-207    H    0.62848972    0.70033982    0.24572061    0.11120000
opls_251-208    N    0.27756978    0.23064998    0.83789956    -0.22160000
opls_251-209    N    0.71112975    0.75976961    0.53167024    -0.22430000
opls_750-210    N    0.93801998    0.57181969    0.57973964    -0.37660000
opls_750-211    N    0.08712987    0.45386999    0.73352943    -0.37660000
opls_750-212    N    0.52631015    0.11594996    0.14266033    -0.37650000
opls_750-213    N    0.56015997    0.90654005    0.28076935    -0.37660000
opls_236-214    O    0.21839996    0.27032006    0.98817956    -0.40240000
opls_236-215    O    0.34460010    0.20349009    0.66508945    -0.41870000
opls_236-216    O    0.64047985    0.79147986    0.64565944    -0.41180000
opls_236-217    O    0.77344995    0.71909986    0.41394044    -0.42880000
