#======================================================================
# Crystal Data Generated By AuToFF
#----------------------------------------------------------------------

data_AuToFF_phase_1

_cell_length_a                         37.7700
_cell_length_b                         37.7700
_cell_length_c                         3.5000
_cell_angle_alpha                      90.00
_cell_angle_beta                       90.00
_cell_angle_gamma                      120.00
_symmetry_space_group_name_H-M_alt     'P 1'
_symmetry_space_group_IT_number        1

loop_
_space_group_symop_operation_xyz
   'x, y, z'

loop_
   _atom_site_label
   _atom_site_type_symbol
   _atom_site_fract_x
   _atom_site_fract_y
   _atom_site_fract_z
   _atom_site_charge
opls_146-0    H    0.29623997    0.58978996    0.00000000    0.04920000
opls_146-1    H    0.23837999    0.67726992    0.00000000    0.04920000
opls_146-2    H    0.16053986    0.63884991    0.00000000    0.04920000
opls_146-3    H    0.16034991    0.52245995    0.00000000    0.04920000
opls_146-4    H    0.23787015    0.56145012    0.00000000    0.04920000
opls_144-5    H    0.50308995    0.59688998    0.00000000    0.02910000
opls_146-6    H    0.42651013    0.48281003    0.00000000    0.04920000
opls_144-7    H    0.55604997    0.60635993    0.00000000    0.04920000
opls_144-8    H    0.62136980    0.58112986    0.80276857    0.11290000
opls_144-9    H    0.63036004    0.62217997    0.19722857    0.11290000
opls_146-10    H    0.41020985    0.70644988    0.00000000    0.04920000
opls_146-11    H    0.32272995    0.56111995    0.00000000    0.04920000
opls_146-12    H    0.36114993    0.52168984    0.00000000    0.04920000
opls_146-13    H    0.47753989    0.63788995    0.00000000    0.04920000
opls_146-14    H    0.43854996    0.67642002    0.00000000    0.04920000
opls_144-15    H    0.40311002    0.90619992    0.00000000    0.02910000
opls_146-16    H    0.51718996    0.94370002    0.00000000    0.04920000
opls_144-17    H    0.39364006    0.94968997    0.00000000    0.04920000
opls_144-18    H    0.41887004    0.04023995    0.80276857    0.11300000
opls_144-19    H    0.37782001    0.00818012    0.19722857    0.11290000
opls_146-20    H    0.29355004    0.70375985    0.00000000    0.04880000
opls_146-21    H    0.43887986    0.76161992    0.00000000    0.04920000
opls_146-22    H    0.47831006    0.83945994    0.00000000    0.04920000
opls_146-23    H    0.36210993    0.83965010    0.00000000    0.04920000
opls_146-24    H    0.32357989    0.76212986    0.00000000    0.04920000
opls_144-25    H    0.09380003    0.49691010    0.00000000    0.02910000
opls_146-26    H    0.05629991    0.57348995    0.00000000    0.04920000
opls_144-27    H    0.05030997    0.44395010    0.00000000    0.04920000
opls_144-28    H    0.95976000    0.37862988    0.80276857    0.11290000
opls_144-29    H    0.99181995    0.36963991    0.19722857    0.11290000
opls_146-30    H    0.70376003    0.41021004    0.00000000    0.04920000
opls_146-31    H    0.76162001    0.32273008    0.00000000    0.04920000
opls_146-32    H    0.83946014    0.36115009    0.00000000    0.04920000
opls_146-33    H    0.83965009    0.47754005    0.00000000    0.04920000
opls_146-34    H    0.76212985    0.43854988    0.00000000    0.04920000
opls_144-35    H    0.49691005    0.40311002    0.00000000    0.02910000
opls_146-36    H    0.57348987    0.51718997    0.00000000    0.04920000
opls_144-37    H    0.44395003    0.39364007    0.00000000    0.04920000
opls_144-38    H    0.37863020    0.41887014    0.80276857    0.11290000
opls_144-39    H    0.36963996    0.37782003    0.19722857    0.11290000
opls_146-40    H    0.58979015    0.29355012    0.00000000    0.04920000
opls_146-41    H    0.67727005    0.43888005    0.00000000    0.04920000
opls_146-42    H    0.63884992    0.47830985    0.00000000    0.04920000
opls_146-43    H    0.52246011    0.36211005    0.00000000    0.04920000
opls_146-44    H    0.56145004    0.32357998    0.00000000    0.04920000
opls_144-45    H    0.59688998    0.09380008    0.00000000    0.02910000
opls_146-46    H    0.48281004    0.05629998    0.00000000    0.04920000
opls_144-47    H    0.60635994    0.05031003    0.00000000    0.04920000
opls_144-48    H    0.58112996    0.95976005    0.80276857    0.11290000
opls_144-49    H    0.62217999    0.99181988    0.19722857    0.11290000
opls_146-50    H    0.70644996    0.29624015    0.00000000    0.04870000
opls_146-51    H    0.56112014    0.23838008    0.00000000    0.04920000
opls_146-52    H    0.52168994    0.16054006    0.00000000    0.04920000
opls_146-53    H    0.63789007    0.16034990    0.00000000    0.04920000
opls_146-54    H    0.67642011    0.23787014    0.00000000    0.04920000
opls_144-55    H    0.90619997    0.50308990    0.00000000    0.02910000
opls_146-56    H    0.94370009    0.42651005    0.00000000    0.04920000
opls_144-57    H    0.94969003    0.55604990    0.00000000    0.04920000
opls_144-58    H    0.04024000    0.62137012    0.80276857    0.11290000
opls_144-59    H    0.00818005    0.63036009    0.19722857    0.11290000
opls_700-60    C    0.28865990    0.64445985    0.00000000    0.07630000
opls_145-61    C    0.31218009    0.62460004    0.00000000    -0.05580000
opls_700-62    C    0.37751991    0.62195007    0.00000000    0.08340000
opls_145-63    C    0.22073004    0.64242010    0.00000000    -0.07990000
opls_145-64    C    0.17774013    0.62120014    0.00000000    -0.13650000
opls_145-65    C    0.15545007    0.57834996    0.00000000    0.26010000
opls_145-66    C    0.17741013    0.55731008    0.00000000    -0.13570000
opls_145-67    C    0.22042003    0.57885012    0.00000000    -0.07990000
opls_142-68    C    0.47901013    0.56301999    0.00000000    0.01680000
opls_700-69    C    0.49123001    0.53296996    0.00000000    0.03910000
opls_145-70    C    0.46000996    0.49123993    0.00000000    -0.05590000
opls_700-71    C    0.46707988    0.45773986    0.00000000    0.08200000
opls_142-72    C    0.56679997    0.58302012    0.00000000    -0.07910000
opls_143-73    C    0.60881994    0.59628007    0.00000000    -0.29240000
opls_700-74    C    0.35554001    0.64418990    0.00000000    0.07790000
opls_145-75    C    0.37539999    0.68756989    0.00000000    -0.05580000
opls_700-76    C    0.37805005    0.75557005    0.00000000    0.08350000
opls_145-77    C    0.35757991    0.57832000    0.00000000    -0.07980000
opls_145-78    C    0.37880004    0.55653997    0.00000000    -0.13650000
opls_145-79    C    0.42165002    0.57709988    0.00000000    0.26010000
opls_145-80    C    0.44268986    0.62009986    0.00000000    -0.13560000
opls_145-81    C    0.42115005    0.64156989    0.00000000    -0.07990000
opls_142-82    C    0.43697989    0.91598996    0.00000000    0.01680000
opls_700-83    C    0.46702986    0.95825988    0.00000000    0.03910000
opls_145-84    C    0.50875985    0.96876989    0.00000000    -0.05580000
opls_700-85    C    0.54225990    0.00934002    0.00000000    0.08200000
opls_142-86    C    0.41698006    0.98378008    0.00000000    -0.07910000
opls_143-87    C    0.40372008    0.01253998    0.00000000    -0.29240000
opls_700-88    C    0.35580998    0.71133985    0.00000000    0.07630000
opls_145-89    C    0.31242998    0.68781997    0.00000000    -0.05580000
opls_700-90    C    0.24443004    0.62247988    0.00000000    0.08410000
opls_145-91    C    0.42168001    0.77926999    0.00000000    -0.07990000
opls_145-92    C    0.44345983    0.82225989    0.00000000    -0.13650000
opls_145-93    C    0.42290003    0.84454986    0.00000000    0.26010000
opls_145-94    C    0.37990001    0.82259006    0.00000000    -0.13560000
opls_145-95    C    0.35842992    0.77957999    0.00000000    -0.07990000
opls_142-96    C    0.08400999    0.52099005    0.00000000    0.01680000
opls_700-97    C    0.04173997    0.50876985    0.00000000    0.03910000
opls_145-98    C    0.03123004    0.53998987    0.00000000    -0.05590000
opls_700-99    C    0.99065996    0.53292012    0.00000000    0.08220000
opls_142-100    C    0.01622012    0.43320010    0.00000000    -0.07910000
opls_143-101    C    0.98745998    0.39117995    0.00000000    -0.29230000
opls_700-102    C    0.71134010    0.35554015    0.00000000    0.07630000
opls_145-103    C    0.68781991    0.37539996    0.00000000    -0.05580000
opls_700-104    C    0.62248009    0.37804993    0.00000000    0.08340000
opls_145-105    C    0.77926996    0.35757990    0.00000000    -0.07990000
opls_145-106    C    0.82225987    0.37879986    0.00000000    -0.13640000
opls_145-107    C    0.84454993    0.42165004    0.00000000    0.26010000
opls_145-108    C    0.82258987    0.44268992    0.00000000    -0.13570000
opls_145-109    C    0.77957997    0.42114988    0.00000000    -0.07990000
opls_142-110    C    0.52099014    0.43698001    0.00000000    0.01680000
opls_700-111    C    0.50876999    0.46703004    0.00000000    0.03920000
opls_145-112    C    0.53999004    0.50876007    0.00000000    -0.05590000
opls_700-113    C    0.53292012    0.54226014    0.00000000    0.08200000
opls_142-114    C    0.43320003    0.41697988    0.00000000    -0.07910000
opls_143-115    C    0.39118006    0.40371993    0.00000000    -0.29240000
opls_700-116    C    0.64445999    0.35581010    0.00000000    0.07790000
opls_145-117    C    0.62460001    0.31243011    0.00000000    -0.05580000
opls_700-118    C    0.62194995    0.24442995    0.00000000    0.08350000
opls_145-119    C    0.64242009    0.42168000    0.00000000    -0.07990000
opls_145-120    C    0.62119996    0.44346003    0.00000000    -0.13650000
opls_145-121    C    0.57834998    0.42290012    0.00000000    0.26020000
opls_145-122    C    0.55731014    0.37990014    0.00000000    -0.13570000
opls_145-123    C    0.57884995    0.35843011    0.00000000    -0.07990000
opls_142-124    C    0.56302011    0.08401004    0.00000000    0.01680000
opls_700-125    C    0.53297014    0.04174012    0.00000000    0.03910000
opls_145-126    C    0.49124015    0.03123011    0.00000000    -0.05590000
opls_700-127    C    0.45774010    0.99065998    0.00000000    0.08200000
opls_142-128    C    0.58301994    0.01621992    0.00000000    -0.07910000
opls_143-129    C    0.59627992    0.98746002    0.00000000    -0.29240000
opls_700-130    C    0.64419992    0.28865984    0.00000000    0.07640000
opls_145-131    C    0.68757002    0.31218003    0.00000000    -0.05580000
opls_700-132    C    0.75556996    0.37752012    0.00000000    0.08410000
opls_145-133    C    0.57831999    0.22073001    0.00000000    -0.07990000
opls_145-134    C    0.55654017    0.17774011    0.00000000    -0.13650000
opls_145-135    C    0.57709997    0.15545014    0.00000000    0.26010000
opls_145-136    C    0.62009999    0.17740994    0.00000000    -0.13570000
opls_145-137    C    0.64157008    0.22042001    0.00000000    -0.07990000
opls_142-138    C    0.91599001    0.47900995    0.00000000    0.01680000
opls_700-139    C    0.95825988    0.49122984    0.00000000    0.03910000
opls_145-140    C    0.96876996    0.46001013    0.00000000    -0.05590000
opls_700-141    C    0.00934004    0.46707988    0.00000000    0.08200000
opls_142-142    C    0.98377988    0.56679990    0.00000000    -0.07910000
opls_143-143    C    0.01254002    0.60882005    0.00000000    -0.29230000
opls_750-144    N    0.43936015    0.55356013    0.00000000    -0.24420000
opls_750-145    N    0.44644006    0.88579990    0.00000000    -0.24160000
opls_750-146    N    0.11420005    0.56063997    0.00000000    -0.24170000
opls_750-147    N    0.56063985    0.44643987    0.00000000    -0.24410000
opls_750-148    N    0.55355994    0.11420010    0.00000000    -0.24170000
opls_750-149    N    0.88581001    0.43936003    0.00000000    -0.24270000
