#======================================================================
# Crystal Data Generated By AuToFF
#----------------------------------------------------------------------

data_AuToFF_phase_1

_cell_length_a                         15.3673
_cell_length_b                         15.3661
_cell_length_c                         6.5738
_cell_angle_alpha                      89.99
_cell_angle_beta                       90.00
_cell_angle_gamma                      59.70
_symmetry_space_group_name_H-M_alt     'P 1'
_symmetry_space_group_IT_number        1

loop_
_space_group_symop_operation_xyz
   'x, y, z'

loop_
   _atom_site_label
   _atom_site_type_symbol
   _atom_site_fract_x
   _atom_site_fract_y
   _atom_site_fract_z
   _atom_site_charge
opls_700-0    C    0.34820987    0.13390026    0.99578935    -0.08640000
opls_231-1    C    0.41636972    0.17110986    0.99576044    0.20420000
opls_700-2    C    0.38158024    0.27656970    0.99585019    -0.11340000
opls_231-3    C    0.27555975    0.34523983    0.99567982    0.30160000
opls_700-4    C    0.20484021    0.31094962    0.99571024    -0.10620000
opls_231-5    C    0.24266987    0.20507972    0.99559007    0.30110000
opls_142-6    C    0.45809970    0.30654976    0.99646932    0.07510000
opls_142-7    C    0.37862988    0.02700970    0.99628069    0.07510000
opls_142-8    C    0.09765954    0.38767007    0.99620007    0.06930000
opls_141-9    C    0.48505025    0.52201983    0.99952995    0.49640000
opls_700-10    C    0.56986986    0.54422013    0.99996045    -0.02600000
opls_145-11    C    0.54228964    0.64663018    0.00013995    -0.05290000
opls_145-12    C    0.67271975    0.47025999    0.99987070    -0.05290000
opls_700-13    C    0.61580024    0.67538990    0.00015972    -0.02580000
opls_700-14    C    0.74779015    0.49710964    0.99989047    -0.02580000
opls_145-15    C    0.71820972    0.59983024    0.00008975    -0.05730000
opls_141-16    C    0.85571007    0.41248957    0.99939000    0.49640000
opls_141-17    C    0.59379979    0.78256989    0.99998022    0.52630000
opls_700-18    C    0.00422030    0.80063980    0.49001947    -0.10620000
opls_231-19    C    0.07091013    0.83971952    0.49001947    0.40730000
opls_700-20    C    0.03404999    0.94571984    0.48996014    -0.07860000
opls_231-21    C    0.92765014    0.01285000    0.48968937    0.37530000
opls_700-22    C    0.85840982    0.97659016    0.48982020    -0.08990000
opls_231-23    C    0.89815024    0.87028005    0.48973957    0.40730000
opls_142-24    C    0.10907040    0.97753986    0.49076942    0.07510000
opls_142-25    C    0.03646029    0.69342961    0.49083939    0.07510000
opls_142-26    C    0.75091996    0.05179022    0.49057927    0.06930000
opls_141-27    C    0.13690031    0.19248971    0.49559007    0.52790000
opls_700-28    C    0.22275973    0.21295030    0.49579999    -0.02600000
opls_145-29    C    0.19670033    0.31489980    0.49581977    -0.05730000
opls_145-30    C    0.32519999    0.13790998    0.49592930    -0.05730000
opls_700-31    C    0.27129990    0.34212030    0.49590039    -0.02580000
opls_700-32    C    0.40131030    0.16325960    0.49599927    -0.02570000
opls_145-33    C    0.37325994    0.26554001    0.49604034    -0.05800000
opls_141-34    C    0.50862975    0.07770029    0.49602969    0.52850000
opls_141-35    C    0.25101969    0.44859022    0.49578022    0.53030000
opls_144-36    H    0.54150000    0.24660996    0.99585932    0.03080000
opls_144-37    H    0.31896024    0.00374963    0.99517022    0.03090000
opls_144-38    H    0.07361002    0.47102990    0.99541057    0.03090000
opls_146-39    H    0.45890026    0.70658960    0.00026925    0.05240000
opls_146-40    H    0.69647982    0.38696957    0.99977943    0.05240000
opls_146-41    H    0.77908980    0.62145995    0.00019928    0.05240000
opls_144-42    H    0.19282032    0.91869987    0.48964982    0.03090000
opls_144-43    H    0.97789006    0.66871023    0.48961027    0.03090000
opls_144-44    H    0.72867964    0.13466995    0.48886945    0.03090000
opls_146-45    H    0.11400986    0.37680022    0.49576957    0.05240000
opls_146-46    H    0.34775010    0.05493990    0.49597949    0.05240000
opls_146-47    H    0.43500008    0.28599005    0.49618942    0.05240000
opls_750-48    N    0.43442979    0.40047971    0.99771061    -0.00220000
opls_750-49    N    0.47257027    0.95595979    0.99796008    -0.00220000
opls_750-50    N    0.50993992    0.42177997    0.99846056    -0.20520000
opls_750-51    N    0.49374043    0.85899952    0.99850011    -0.20450000
opls_750-52    N    0.02787986    0.36361988    0.99752959    0.00330000
opls_750-53    N    0.93016979    0.43836994    0.99820043    -0.20510000
opls_750-54    N    0.08458008    0.07182027    0.49275001    -0.11300000
opls_750-55    N    0.13074017    0.62281988    0.49294928    -0.11150000
opls_750-56    N    0.16046963    0.09291022    0.49360035    -0.20510000
opls_750-57    N    0.15160976    0.52568019    0.49377985    -0.20450000
opls_750-58    N    0.68162984    0.02692963    0.49309988    -0.11290000
opls_750-59    N    0.58374012    0.10218019    0.49383005    -0.20460000
opls_272-60    O    0.39630016    0.59053012    0.99987983    -0.34410000
opls_272-61    O    0.87758020    0.32356988    0.99982050    -0.32960000
opls_272-62    O    0.66251026    0.80189977    0.00088990    -0.34410000
opls_272-63    O    0.23433983    0.44711020    0.99548054    -0.22530000
opls_272-64    O    0.51837975    0.10945971    0.99559007    -0.22410000
opls_272-65    O    0.18198998    0.16419999    0.99527975    -0.22460000
opls_272-66    O    0.04849982    0.26227004    0.49700934    -0.34410000
opls_272-67    O    0.52898002    0.98900965    0.49785056    -0.34320000
opls_272-68    O    0.32093000    0.46635974    0.49724056    -0.34860000
opls_272-69    O    0.88514017    0.11467968    0.48933950    -0.22830000
opls_272-70    O    0.17271009    0.77958974    0.49006967    -0.22260000
opls_272-71    O    0.83912028    0.82799000    0.48938970    -0.22370000
