#======================================================================
# Crystal Data Generated By AuToFF
#----------------------------------------------------------------------

data_AuToFF_phase_1

_cell_length_a                         40.1545
_cell_length_b                         40.1545
_cell_length_c                         4.2278
_cell_angle_alpha                      90.00
_cell_angle_beta                       90.00
_cell_angle_gamma                      120.00
_symmetry_space_group_name_H-M_alt     'P 1'
_symmetry_space_group_IT_number        1

loop_
_space_group_symop_operation_xyz
   'x, y, z'

loop_
   _atom_site_label
   _atom_site_type_symbol
   _atom_site_fract_x
   _atom_site_fract_y
   _atom_site_fract_z
   _atom_site_charge
opls_700-0    C    0.28995994    0.64138995    0.72239936    0.09510000
opls_145-1    C    0.31539995    0.62366994    0.72250106    -0.06880000
opls_700-2    C    0.24401001    0.61449002    0.71751029    0.09750000
opls_145-3    C    0.37379985    0.59297992    0.53708075    -0.08080000
opls_145-4    C    0.39928988    0.57577983    0.52174890    -0.10970000
opls_145-5    C    0.43737982    0.59443988    0.69341028    0.20940000
opls_145-6    C    0.44899996    0.63092002    0.87620039    -0.10970000
opls_145-7    C    0.42356996    0.64815001    0.88736932    -0.08100000
opls_142-8    C    0.45491998    0.54313984    0.57606084    0.05010000
opls_700-9    C    0.48379003    0.52732006    0.54710961    -0.04000000
opls_145-10    C    0.46630005    0.48382997    0.53012915    -0.08140000
opls_145-11    C    0.49057990    0.46550004    0.52677989    -0.08140000
opls_700-12    C    0.71020013    0.35728007    0.54013908    0.09520000
opls_145-13    C    0.68605003    0.37642984    0.54003974    -0.06780000
opls_700-14    C    0.75629000    0.38264986    0.54182081    0.09720000
opls_145-15    C    0.63135001    0.41186985    0.38119116    -0.08090000
opls_145-16    C    0.60784993    0.43131007    0.38249917    -0.10970000
opls_145-17    C    0.56935004    0.41288007    0.54683050    0.21210000
opls_145-18    C    0.55484998    0.37428001    0.70323099    -0.10970000
opls_145-19    C    0.57867991    0.35525993    0.70275084    -0.08070000
opls_142-20    C    0.55998001    0.47040991    0.55614031    0.04980000
opls_700-21    C    0.53400990    0.48975983    0.54806046    -0.04070000
opls_166-22    C    0.55224993    0.53323986    0.56198969    0.20340000
opls_166-23    C    0.52752005    0.55216993    0.54486021    0.20140000
opls_181-24    C    0.53504987    0.61385997    0.27319883    -0.17020000
opls_181-25    C    0.61548011    0.59477001    0.74068073    -0.17020000
opls_700-26    C    0.35860985    0.64856986    0.72239936    0.09510000
opls_145-27    C    0.37632999    0.69172982    0.72250106    -0.06880000
opls_700-28    C    0.38550991    0.62951987    0.71751029    0.09750000
opls_145-29    C    0.40702002    0.78081986    0.53708075    -0.08090000
opls_145-30    C    0.42422007    0.82350994    0.52174890    -0.10970000
opls_145-31    C    0.40555986    0.84293981    0.69341028    0.20940000
opls_145-32    C    0.36908003    0.81807986    0.87620039    -0.10970000
opls_145-33    C    0.35185000    0.77541997    0.88736932    -0.08100000
opls_142-34    C    0.45685993    0.91177985    0.57606084    0.05010000
opls_700-35    C    0.47267993    0.95646994    0.54710961    -0.04010000
opls_145-36    C    0.51616983    0.98246979    0.53012915    -0.08140000
opls_145-37    C    0.53449989    0.02507993    0.52677989    -0.08140000
opls_700-38    C    0.64272008    0.35292002    0.54013908    0.09510000
opls_145-39    C    0.62356992    0.30962001    0.54003974    -0.06780000
opls_700-40    C    0.61735002    0.37363989    0.54182081    0.09720000
opls_145-41    C    0.58813000    0.21948007    0.38119116    -0.08090000
opls_145-42    C    0.56868993    0.17654009    0.38249917    -0.10970000
opls_145-43    C    0.58711999    0.15647011    0.54683050    0.21200000
opls_145-44    C    0.62571989    0.18057002    0.70323099    -0.10970000
opls_145-45    C    0.64473992    0.22341999    0.70275084    -0.08070000
opls_142-46    C    0.52958993    0.08956998    0.55614031    0.04980000
opls_700-47    C    0.51023997    0.04425012    0.54806046    -0.04070000
opls_166-48    C    0.46676011    0.01901002    0.56198969    0.20340000
opls_166-49    C    0.44782989    0.97534998    0.54486021    0.20150000
opls_181-50    C    0.38613999    0.92118981    0.27319883    -0.17020000
opls_181-51    C    0.40523010    0.02071010    0.74068073    -0.17030000
opls_700-52    C    0.35143007    0.71003991    0.72239936    0.09520000
opls_145-53    C    0.30826992    0.68459995    0.72250106    -0.06880000
opls_700-54    C    0.37047994    0.75598982    0.71751029    0.09760000
opls_145-55    C    0.21917998    0.62619993    0.53708075    -0.08090000
opls_145-56    C    0.17648990    0.60070994    0.52174890    -0.10970000
opls_145-57    C    0.15705993    0.56262002    0.69341028    0.20950000
opls_145-58    C    0.18191987    0.55099983    0.87620039    -0.10970000
opls_145-59    C    0.22458005    0.57643001    0.88736932    -0.08100000
opls_142-60    C    0.08821995    0.54508003    0.57606084    0.05010000
opls_700-61    C    0.04353005    0.51621000    0.54710961    -0.04010000
opls_145-62    C    0.01752998    0.53369996    0.53012915    -0.08140000
opls_145-63    C    0.97491996    0.50942003    0.52677989    -0.08140000
opls_700-64    C    0.64708004    0.28979992    0.54013908    0.09510000
opls_145-65    C    0.69037991    0.31394986    0.54003974    -0.06780000
opls_700-66    C    0.62636008    0.24370996    0.54182081    0.09720000
opls_145-67    C    0.78051998    0.36865007    0.38119116    -0.08080000
opls_145-68    C    0.82345989    0.39214984    0.38249917    -0.10970000
opls_145-69    C    0.84352997    0.43064982    0.54683050    0.21220000
opls_145-70    C    0.81942988    0.44514997    0.70323099    -0.10970000
opls_145-71    C    0.77657993    0.42132008    0.70275084    -0.08060000
opls_142-72    C    0.91043006    0.44002011    0.55614031    0.04980000
opls_700-73    C    0.95575013    0.46599005    0.54806046    -0.04070000
opls_166-74    C    0.98098981    0.44774984    0.56198969    0.20340000
opls_166-75    C    0.02465006    0.47248009    0.54486021    0.20150000
opls_181-76    C    0.07880999    0.46494993    0.27319883    -0.17020000
opls_181-77    C    0.97929004    0.38451989    0.74068073    -0.17020000
opls_750-78    N    0.46652997    0.58066009    0.67655991    -0.23630000
opls_750-79    N    0.54319989    0.43030992    0.54446048    -0.23640000
opls_750-80    N    0.41933989    0.88587001    0.67655991    -0.23640000
opls_750-81    N    0.56969010    0.11289002    0.54446048    -0.23640000
opls_750-82    N    0.11412989    0.53346991    0.67655991    -0.23630000
opls_750-83    N    0.88711001    0.45680006    0.54446048    -0.23640000
opls_179-84    O    0.54789002    0.59536987    0.53199063    -0.12250000
opls_179-85    O    0.59538012    0.55534004    0.57121907    -0.12250000
opls_179-86    O    0.40462990    0.95251996    0.53199063    -0.12250000
opls_179-87    O    0.44466002    0.04003989    0.57121907    -0.12240000
opls_179-88    O    0.04747994    0.45210989    0.53199063    -0.12240000
opls_179-89    O    0.95996011    0.40462007    0.57121907    -0.12240000
opls_146-90    H    0.30129991    0.58985007    0.72134917    0.04190000
opls_146-91    H    0.34452983    0.57831989    0.39727991    0.04110000
opls_146-92    H    0.38975006    0.54806006    0.36822934    0.04180000
opls_146-93    H    0.47850998    0.64567006    0.01255972    0.04110000
opls_146-94    H    0.43319991    0.67646993    0.03331993    0.04180000
opls_144-95    H    0.42166006    0.51972002    0.52474100    0.02150000
opls_146-96    H    0.43243985    0.46444985    0.52382090    0.04180000
opls_146-97    H    0.47650011    0.43175004    0.51330006    0.04110000
opls_146-98    H    0.70130000    0.41035008    0.54016983    0.04180000
opls_146-99    H    0.66099010    0.42637000    0.24666966    0.04110000
opls_146-100    H    0.61899007    0.46066004    0.24792090    0.04110000
opls_146-101    H    0.52495990    0.35978993    0.83362032    0.04120000
opls_146-102    H    0.56725004    0.32559996    0.83309050    0.04110000
opls_144-103    H    0.59414997    0.49172994    0.57981929    0.02110000
opls_185-104    H    0.51030005    0.59033001    0.11401911    0.05760000
opls_185-105    H    0.56234002    0.63359983    0.11475945    0.05850000
opls_185-106    H    0.52421996    0.63364009    0.38971096    0.05850000
opls_185-107    H    0.62092013    0.62027007    0.56791949    0.05850000
opls_185-108    H    0.64574004    0.59997004    0.82911916    0.05850000
opls_185-109    H    0.59716992    0.59470991    0.95798051    0.05800000
opls_146-110    H    0.41014995    0.71144984    0.72134917    0.04180000
opls_146-111    H    0.42167993    0.76620986    0.39727991    0.04120000
opls_146-112    H    0.45193992    0.84169005    0.36822934    0.04180000
opls_146-113    H    0.35433006    0.83283997    0.01255972    0.04110000
opls_146-114    H    0.32353006    0.75673001    0.03331993    0.04180000
opls_144-115    H    0.48028002    0.90193997    0.52474100    0.02150000
opls_146-116    H    0.53555015    0.96799006    0.52382090    0.04180000
opls_146-117    H    0.56825001    0.04474991    0.51330006    0.04110000
opls_146-118    H    0.58965007    0.29094989    0.54016983    0.04190000
opls_146-119    H    0.57362999    0.23462005    0.24666966    0.04110000
opls_146-120    H    0.53934011    0.15833008    0.24792090    0.04110000
opls_146-121    H    0.64020997    0.16517009    0.83362032    0.04110000
opls_146-122    H    0.67439999    0.24164985    0.83309050    0.04110000
opls_144-123    H    0.50827015    0.10242008    0.57981929    0.02110000
opls_185-124    H    0.40967007    0.91996997    0.11401911    0.05760000
opls_185-125    H    0.36639982    0.92873982    0.11475945    0.05850000
opls_185-126    H    0.36636013    0.89058002    0.38971096    0.05850000
opls_185-127    H    0.37973000    0.00064990    0.56791949    0.05850000
opls_185-128    H    0.40002998    0.04576990    0.82911916    0.05860000
opls_185-129    H    0.40529012    0.00246011    0.95798051    0.05800000
opls_146-130    H    0.28854999    0.69869981    0.72134917    0.04180000
opls_146-131    H    0.23379009    0.65546996    0.39727991    0.04110000
opls_146-132    H    0.15831002    0.61024989    0.36822934    0.04180000
opls_146-133    H    0.16715996    0.52148997    0.01255972    0.04110000
opls_146-134    H    0.24327003    0.56680006    0.03331993    0.04180000
opls_144-135    H    0.09805992    0.57834002    0.52474100    0.02150000
opls_146-136    H    0.03201001    0.56756009    0.52382090    0.04180000
opls_146-137    H    0.95525013    0.52350005    0.51330006    0.04110000
opls_146-138    H    0.70904993    0.29870004    0.54016983    0.04180000
opls_146-139    H    0.76537991    0.33900995    0.24666966    0.04110000
opls_146-140    H    0.84166982    0.38100988    0.24792090    0.04120000
opls_146-141    H    0.83482988    0.47503999    0.83362032    0.04110000
opls_146-142    H    0.75835007    0.43274990    0.83309050    0.04110000
opls_144-143    H    0.89757989    0.40584998    0.57981929    0.02110000
opls_185-144    H    0.08003013    0.48970002    0.11401911    0.05760000
opls_185-145    H    0.07126002    0.43766007    0.11475945    0.05860000
opls_185-146    H    0.10941991    0.47577989    0.38971096    0.05850000
opls_185-147    H    0.99935013    0.37908004    0.56791949    0.05850000
opls_185-148    H    0.95422998    0.35426007    0.82911916    0.05850000
opls_185-149    H    0.99753996    0.40282998    0.95798051    0.05800000
