#======================================================================
# Crystal Data Generated By AuToFF
#----------------------------------------------------------------------

data_AuToFF_phase_1

_cell_length_a                         26.4636
_cell_length_b                         26.4636
_cell_length_c                         4.2000
_cell_angle_alpha                      90.00
_cell_angle_beta                       90.00
_cell_angle_gamma                      120.00
_symmetry_space_group_name_H-M_alt     'P 1'
_symmetry_space_group_IT_number        1

loop_
_space_group_symop_operation_xyz
   'x, y, z'

loop_
   _atom_site_label
   _atom_site_type_symbol
   _atom_site_fract_x
   _atom_site_fract_y
   _atom_site_fract_z
   _atom_site_charge
opls_700-0    C    0.73044998    0.36594010    0.50000952    0.06850000
opls_700-1    C    0.63406002    0.36450979    0.50000952    0.06850000
opls_700-2    C    0.63550021    0.26955012    0.50000952    0.06790000
opls_145-3    C    0.69737009    0.30398003    0.50000952    -0.06160000
opls_145-4    C    0.69601982    0.39339999    0.50000952    -0.06160000
opls_145-5    C    0.60660983    0.30263001    0.50000952    -0.06160000
opls_700-6    C    0.27004997    0.64199990    0.50000952    0.06850000
opls_700-7    C    0.35800003    0.62804982    0.50000952    0.06730000
opls_700-8    C    0.37194979    0.72994984    0.50000952    0.06850000
opls_145-9    C    0.31011016    0.70302010    0.50000952    -0.06160000
opls_145-10    C    0.29698014    0.60709001    0.50000952    -0.06160000
opls_145-11    C    0.39291007    0.68988989    0.50000952    -0.06160000
opls_700-12    C    0.20740004    0.61756992    0.50000952    0.07670000
opls_700-13    C    0.38242977    0.58981986    0.50000952    0.07670000
opls_700-14    C    0.41017991    0.79260019    0.50000952    0.07730000
opls_700-15    C    0.79358995    0.39822979    0.50000952    0.07530000
opls_700-16    C    0.60176988    0.39537005    0.50000952    0.07530000
opls_700-17    C    0.60463008    0.20641020    0.50000952    0.07530000
opls_145-18    C    0.18018001    0.65255005    0.50000952    -0.08900000
opls_145-19    C    0.34744980    0.52762985    0.50000952    -0.08900000
opls_145-20    C    0.47237018    0.81982010    0.50000952    -0.08900000
opls_145-21    C    0.82833003    0.37073978    0.50000952    -0.06130000
opls_145-22    C    0.62926025    0.45759016    0.50000952    -0.06130000
opls_145-23    C    0.54241010    0.17167005    0.50000952    -0.06130000
opls_145-24    C    0.63356988    0.17303011    0.50000952    -0.06150000
opls_145-25    C    0.82696989    0.46053979    0.50000952    -0.06130000
opls_145-26    C    0.53945996    0.36644014    0.50000952    -0.06130000
opls_145-27    C    0.38922008    0.83297997    0.50000952    -0.08900000
opls_145-28    C    0.16701991    0.55624996    0.50000952    -0.08900000
opls_145-29    C    0.44374991    0.61078010    0.50000952    -0.08900000
opls_145-30    C    0.11931990    0.62922007    0.50000952    -0.08960000
opls_145-31    C    0.37078016    0.49010020    0.50000952    -0.08960000
opls_145-32    C    0.50990015    0.88068016    0.50000952    -0.08960000
opls_700-33    C    0.88971005    0.40189020    0.50000952    -0.00190000
opls_700-34    C    0.59811007    0.48781992    0.50000952    -0.00190000
opls_700-35    C    0.51217989    0.11028988    0.50000952    -0.00190000
opls_700-36    C    0.60381013    0.11164994    0.50000952    0.02040000
opls_700-37    C    0.88835021    0.49216014    0.50000952    0.01300000
opls_700-38    C    0.50784987    0.39618992    0.50000952    0.02050000
opls_145-39    C    0.42604982    0.89392992    0.50000952    -0.08960000
opls_145-40    C    0.10607014    0.53212018    0.50000952    -0.08960000
opls_145-41    C    0.46788004    0.57394990    0.50000952    -0.08960000
opls_700-42    C    0.08116998    0.56841019    0.50000952    0.06520000
opls_700-43    C    0.43159009    0.51275997    0.50000952    0.06520000
opls_700-44    C    0.48723993    0.91882984    0.50000952    0.06520000
opls_145-45    C    0.92084995    0.46313991    0.50000952    0.15070000
opls_145-46    C    0.53685993    0.45770012    0.50000952    0.15070000
opls_145-47    C    0.54229984    0.07914993    0.50000952    0.15070000
opls_142-48    C    0.02057990    0.54645990    0.50000952    0.09050000
opls_142-49    C    0.45353992    0.47411986    0.50000952    0.09050000
opls_142-50    C    0.52587996    0.97941980    0.50000952    0.09090000
opls_515-51    C    0.63119994    0.55501993    0.50000952    0.07040000
opls_135-52    C    0.69736001    0.57793016    0.50000952    -0.36740000
opls_135-53    C    0.61479011    0.57708017    0.80004048    -0.36740000
opls_515-54    C    0.44065979    0.36158983    0.50000952    0.07040000
opls_135-55    C    0.41940991    0.29575991    0.50000952    -0.36740000
opls_135-56    C    0.41777005    0.37708017    0.19996905    -0.36740000
opls_515-57    C    0.44499005    0.07618983    0.50000952    0.06990000
opls_135-58    C    0.42207981    0.11942980    0.50000952    -0.36730000
opls_135-59    C    0.42291975    0.03770985    0.80004048    -0.36730000
opls_515-60    C    0.63842003    0.07908012    0.50000952    0.07050000
opls_135-61    C    0.70425008    0.12365003    0.50000952    -0.36740000
opls_135-62    C    0.62293018    0.04070006    0.19996905    -0.36740000
opls_515-63    C    0.92380990    0.36879984    0.50000952    0.07040000
opls_135-64    C    0.88057001    0.30264005    0.50000952    -0.36740000
opls_135-65    C    0.96229014    0.38520998    0.80004048    -0.36720000
opls_515-66    C    0.92093011    0.55934009    0.50000952    0.07000000
opls_135-67    C    0.87635021    0.58059006    0.50000952    -0.36730000
opls_135-68    C    0.95929988    0.58222980    0.19996905    -0.36730000
opls_146-69    H    0.72054983    0.27744997    0.50000952    0.04520000
opls_146-70    H    0.72254981    0.44309990    0.50000952    0.04520000
opls_146-71    H    0.55689998    0.27945013    0.50000952    0.04520000
opls_146-72    H    0.29328999    0.73515009    0.50000952    0.04520000
opls_146-73    H    0.26485017    0.55814016    0.50000952    0.04520000
opls_146-74    H    0.44187026    0.70671018    0.50000952    0.04470000
opls_146-75    H    0.20809005    0.70216008    0.50000952    0.04520000
opls_146-76    H    0.29783986    0.50593002    0.50000952    0.04520000
opls_146-77    H    0.49407992    0.79190991    0.50000952    0.04520000
opls_146-78    H    0.80641012    0.32111012    0.50000952    0.04520000
opls_146-79    H    0.67889001    0.48530008    0.50000952    0.04520000
opls_146-80    H    0.51469987    0.19358980    0.50000952    0.04520000
opls_146-81    H    0.68327009    0.19610003    0.50000952    0.04530000
opls_146-82    H    0.80389992    0.48716018    0.50000952    0.04520000
opls_146-83    H    0.51283992    0.31673019    0.50000952    0.04470000
opls_146-84    H    0.34029004    0.81626004    0.50000952    0.04520000
opls_146-85    H    0.18373998    0.52403008    0.50000952    0.04470000
opls_146-86    H    0.47596998    0.65970988    0.50000952    0.04520000
opls_146-87    H    0.10043002    0.65962000    0.50000952    0.04520000
opls_146-88    H    0.34037999    0.44081001    0.50000952    0.04520000
opls_146-89    H    0.55919992    0.89958003    0.50000952    0.04520000
opls_146-90    H    0.40651008    0.92377003    0.50000952    0.04520000
opls_146-91    H    0.07623001    0.48274010    0.50000952    0.04520000
opls_146-92    H    0.51726984    0.59349991    0.50000952    0.04520000
opls_144-93    H    0.00278998    0.57779009    0.50000952    0.02670000
opls_144-94    H    0.42220986    0.42499984    0.50000952    0.02670000
opls_144-95    H    0.57500998    0.99721007    0.50000952    0.02670000
opls_702-96    H    0.61893014    0.57147021    0.27878095    0.04520000
opls_140-97    H    0.70951995    0.56148991    0.72168095    0.09210000
opls_140-98    H    0.72190997    0.62767021    0.50015000    0.09210000
opls_140-99    H    0.70958008    0.56153005    0.27839048    0.09210000
opls_140-100    H    0.62713990    0.56069011    0.02121905    0.09220000
opls_140-101    H    0.56579995    0.56010018    0.80079048    0.09140000
opls_140-102    H    0.63931000    0.62681979    0.80011905    0.09210000
opls_702-103    H    0.42359026    0.37317017    0.72123095    0.04520000
opls_140-104    H    0.43646009    0.28427993    0.27833095    0.09210000
opls_140-105    H    0.36967995    0.27007983    0.49985952    0.09210000
opls_140-106    H    0.43641999    0.28422015    0.72161905    0.09210000
opls_140-107    H    0.43478001    0.36541998    0.97879048    0.09210000
opls_140-108    H    0.43353009    0.42582015    0.19921905    0.09210000
opls_140-109    H    0.36804003    0.35143020    0.19989048    0.09210000
opls_702-110    H    0.42853028    0.04746020    0.27878095    0.04520000
opls_140-111    H    0.43850992    0.14802984    0.72168095    0.09210000
opls_140-112    H    0.37234000    0.09424015    0.50015000    0.09210000
opls_140-113    H    0.43848001    0.14805994    0.27839048    0.09220000
opls_140-114    H    0.43932014    0.06644995    0.02121905    0.09210000
opls_140-115    H    0.43990999    0.00570988    0.80079048    0.09210000
opls_140-116    H    0.37318001    0.01249010    0.80011905    0.09210000
opls_702-117    H    0.62682989    0.05041986    0.72123095    0.04520000
opls_140-118    H    0.71571971    0.15216979    0.27833095    0.09210000
opls_140-119    H    0.72992018    0.09959006    0.49985952    0.09210000
opls_140-120    H    0.71578011    0.15219989    0.72161905    0.09210000
opls_140-121    H    0.63457990    0.06936991    0.97879048    0.09210000
opls_140-122    H    0.57417992    0.00771005    0.19921905    0.09140000
opls_140-123    H    0.64857011    0.01660998    0.19989048    0.09210000
opls_702-124    H    0.95254018    0.38107003    0.27878095    0.04520000
opls_140-125    H    0.85196991    0.29047982    0.72168095    0.09210000
opls_140-126    H    0.90576007    0.27809007    0.50015000    0.09210000
opls_140-127    H    0.85194002    0.29042004    0.27839048    0.09210000
opls_140-128    H    0.93354989    0.37286997    0.02121905    0.09210000
opls_140-129    H    0.99429016    0.43419997    0.80079048    0.09220000
opls_140-130    H    0.98750999    0.36069011    0.80011905    0.09210000
opls_702-131    H    0.94957985    0.57640996    0.72123095    0.04520000
opls_140-132    H    0.84782981    0.56354985    0.27833095    0.09210000
opls_140-133    H    0.90041007    0.63033011    0.49985952    0.09210000
opls_140-134    H    0.84779989    0.56357996    0.72161905    0.09210000
opls_140-135    H    0.93062999    0.56522014    0.97879048    0.09210000
opls_140-136    H    0.99228998    0.56646981    0.19921905    0.09140000
opls_140-137    H    0.98338986    0.63195982    0.19989048    0.09210000
opls_750-138    N    0.97991003    0.48920004    0.50000952    -0.26040000
opls_750-139    N    0.51080009    0.49071020    0.50000952    -0.26550000
opls_750-140    N    0.50929010    0.02009019    0.50000952    -0.26040000
