#======================================================================
# Crystal Data Generated By AuToFF
#----------------------------------------------------------------------

data_AuToFF_phase_1

_cell_length_a                         23.1929
_cell_length_b                         23.2339
_cell_length_c                         15.0000
_cell_angle_alpha                      90.00
_cell_angle_beta                       90.00
_cell_angle_gamma                      119.89
_symmetry_space_group_name_H-M_alt     'P 1'
_symmetry_space_group_IT_number        1

loop_
_space_group_symop_operation_xyz
   'x, y, z'

loop_
   _atom_site_label
   _atom_site_type_symbol
   _atom_site_fract_x
   _atom_site_fract_y
   _atom_site_fract_z
   _atom_site_charge
opls_916-0    C    0.07023986    0.03844008    0.50743000    0.20790000
opls_145-1    C    0.10363002    0.09618012    0.55965000    -0.11030000
opls_145-2    C    0.17261014    0.13228998    0.55971000    -0.09260000
opls_700-3    C    0.21014005    0.11225978    0.50789000    0.06390000
opls_145-4    C    0.17611989    0.05414990    0.45589000    -0.09260000
opls_145-5    C    0.10737984    0.01763992    0.45587000    -0.11030000
opls_145-6    C    0.38768007    0.17748986    0.45892000    0.24010000
opls_145-7    C    0.42735999    0.14756991    0.44971000    -0.13310000
opls_523-8    C    0.49613991    0.18592013    0.44839000    -0.09110000
opls_700-9    C    0.52756008    0.25556987    0.45379000    -0.00060000
opls_523-10    C    0.48801000    0.28566010    0.46014000    -0.09110000
opls_145-11    C    0.41920984    0.24744987    0.46271000    -0.13320000
opls_531-12    C    0.60063993    0.29643002    0.45277000    0.44210000
opls_142-13    C    0.28228022    0.15127025    0.50890000    0.03500000
opls_916-14    C    0.96256984    0.03352002    0.50864000    0.20810000
opls_145-15    C    0.90447999    0.00870975    0.56044000    -0.11030000
opls_145-16    C    0.86781987    0.04109992    0.56041000    -0.09260000
opls_700-17    C    0.88740009    0.09836984    0.50842000    0.06380000
opls_145-18    C    0.94573021    0.12277006    0.45652000    -0.09260000
opls_145-19    C    0.98285983    0.09113993    0.45680000    -0.11030000
opls_145-20    C    0.82162008    0.21021015    0.45947000    0.23880000
opls_145-21    C    0.85161972    0.27965983    0.45016000    -0.13310000
opls_523-22    C    0.81322997    0.31011990    0.44930000    -0.09110000
opls_700-23    C    0.74347009    0.27207994    0.45515000    -0.00170000
opls_523-24    C    0.71329990    0.20260990    0.46139000    -0.09110000
opls_145-25    C    0.75156005    0.17198006    0.46363000    -0.13320000
opls_531-26    C    0.70252994    0.30428990    0.45412000    0.44210000
opls_142-27    C    0.84797995    0.13115019    0.50923000    0.03500000
opls_916-28    C    0.96804019    0.93121006    0.50822000    0.20530000
opls_145-29    C    0.99454015    0.89811994    0.55810000    -0.11020000
opls_145-30    C    0.96402012    0.82990983    0.55746000    -0.07630000
opls_700-31    C    0.90477022    0.79025004    0.50735000    0.07200000
opls_145-32    C    0.87877003    0.82462987    0.45734000    -0.08010000
opls_145-33    C    0.90964994    0.89309018    0.45794000    -0.11030000
opls_145-34    C    0.78670998    0.60991021    0.46595000    0.24080000
opls_145-35    C    0.71762998    0.57065997    0.45119000    -0.11060000
opls_523-36    C    0.68803995    0.50227015    0.44614000    -0.09110000
opls_700-37    C    0.72623004    0.47070008    0.45496000    -0.00160000
opls_523-38    C    0.79542005    0.51034001    0.46635000    -0.09100000
opls_145-39    C    0.82559995    0.57884996    0.47184000    -0.13310000
opls_531-40    C    0.69442004    0.39798988    0.45344000    0.44140000
opls_142-41    C    0.87546003    0.72089021    0.51006000    0.01620000
opls_750-42    N    0.31896984    0.13637009    0.46049000    -0.20540000
opls_520-43    N    0.73415021    0.37104003    0.45453000    -0.33460000
opls_750-44    N    0.86282014    0.18260998    0.46081000    -0.21260000
opls_520-45    N    0.62747029    0.36283017    0.45207000    -0.33800000
opls_750-46    N    0.81462011    0.67803990    0.47542000    -0.26630000
opls_520-47    N    0.63592999    0.26475024    0.45355000    -0.33560000
opls_239-48    N    0.00012999    0.00097994    0.50770000    -0.03600000
opls_146-49    H    0.07403032    0.11324022    0.60182000    0.05010000
opls_146-50    H    0.19979014    0.17900991    0.60219000    0.05010000
opls_146-51    H    0.20530995    0.03684010    0.41329000    0.05010000
opls_146-52    H    0.08054017    0.97054023    0.41406000    0.05010000
opls_146-53    H    0.40294986    0.09133999    0.44326000    0.05010000
opls_526-54    H    0.52776029    0.16107015    0.44289000    0.05010000
opls_526-55    H    0.51245012    0.34203994    0.46323000    0.05010000
opls_146-56    H    0.38775012    0.27248005    0.46791000    0.05010000
opls_144-57    H    0.90290027    0.69717009    0.54282000    0.02960000
opls_146-58    H    0.88757020    0.96208017    0.60236000    0.05010000
opls_146-59    H    0.82101975    0.02139984    0.60295000    0.05010000
opls_146-60    H    0.96267982    0.16901988    0.41377000    0.05010000
opls_146-61    H    0.03008999    0.11160996    0.41502000    0.05010000
opls_146-62    H    0.90792021    0.31128004    0.44325000    0.05010000
opls_526-63    H    0.83812025    0.36644017    0.44382000    0.05010000
opls_526-64    H    0.65681980    0.17083977    0.46467000    0.05010000
opls_146-65    H    0.72613019    0.11561014    0.46886000    0.05010000
opls_144-66    H    0.30843014    0.19688018    0.55359000    0.02960000
opls_146-67    H    0.04158008    0.92795998    0.59932000    0.05010000
opls_146-68    H    0.98599030    0.80376021    0.59757000    0.05010000
opls_146-69    H    0.83169019    0.79550022    0.41594000    0.05010000
opls_146-70    H    0.88747035    0.91877018    0.41723000    0.05010000
opls_146-71    H    0.68595006    0.59528010    0.44337000    0.05010000
opls_526-72    H    0.63214997    0.47077007    0.43473000    0.05010000
opls_526-73    H    0.82769014    0.48618006    0.47123000    0.05010000
opls_146-74    H    0.88175006    0.61000999    0.48110000    0.05010000
opls_144-75    H    0.80215988    0.11152011    0.55371000    0.02960000
