#======================================================================
# Crystal Data Generated By AuToFF
#----------------------------------------------------------------------

data_AuToFF_phase_1

_cell_length_a                         31.5800
_cell_length_b                         31.5800
_cell_length_c                         3.4100
_cell_angle_alpha                      90.00
_cell_angle_beta                       90.00
_cell_angle_gamma                      120.00
_symmetry_space_group_name_H-M_alt     'P 1'
_symmetry_space_group_IT_number        1

loop_
_space_group_symop_operation_xyz
   'x, y, z'

loop_
   _atom_site_label
   _atom_site_type_symbol
   _atom_site_fract_x
   _atom_site_fract_y
   _atom_site_fract_z
   _atom_site_charge
MOF2_B_2-0    B    0.87034000    0.42609989    0.50000000    0.59410000
MOF2_B_2-1    B    0.57391001    0.44425004    0.50000000    0.59530000
MOF2_B_2-2    B    0.55574985    0.12965994    0.50000000    0.59530000
MOF2_B_2-3    B    0.12965987    0.57390998    0.50000000    0.59530000
MOF2_B_2-4    B    0.42610012    0.55574996    0.50000000    0.59530000
MOF2_B_2-5    B    0.44425015    0.87034006    0.50000000    0.59530000
opls_567-6    C    0.92399986    0.45301999    0.50000000    -0.32870000
opls_700-7    C    0.70974008    0.33012993    0.50000000    0.03280000
opls_166-8    C    0.79651998    0.37048010    0.50000000    0.18590000
opls_145-9    C    0.75333999    0.32800994    0.50000000    -0.21090000
opls_716-10    C    0.44469000    0.94794999    0.50000000    -0.15970000
opls_567-11    C    0.47673993    0.99521008    0.50000000    -0.00490000
opls_700-12    C    0.33581991    0.71252013    0.50000000    0.03170000
opls_166-13    C    0.38411009    0.79881992    0.50000000    0.18490000
opls_145-14    C    0.33928006    0.75861016    0.50000000    -0.21060000
opls_567-15    C    0.54698006    0.47098988    0.50000000    -0.32870000
opls_700-16    C    0.66987002    0.37961021    0.50000000    0.03280000
opls_166-17    C    0.62952002    0.42605016    0.50000000    0.18590000
opls_145-18    C    0.67199000    0.42533021    0.50000000    -0.21090000
opls_716-19    C    0.05204982    0.49673993    0.50000000    -0.15970000
opls_567-20    C    0.00478997    0.48152991    0.50000000    -0.00490000
opls_700-21    C    0.28747993    0.62329994    0.50000000    0.03170000
opls_166-22    C    0.20117991    0.58528002    0.50000000    0.18490000
opls_145-23    C    0.24139015    0.58068023    0.50000000    -0.21060000
opls_567-24    C    0.52901013    0.07600000    0.50000000    -0.32870000
opls_700-25    C    0.62038990    0.29025986    0.50000000    0.03280000
opls_166-26    C    0.57394993    0.20347997    0.50000000    0.18590000
opls_145-27    C    0.57467001    0.24665985    0.50000000    -0.21090000
opls_716-28    C    0.50326017    0.55531009    0.50000000    -0.15970000
opls_567-29    C    0.51847010    0.52326001    0.50000000    -0.00490000
opls_700-30    C    0.37669984    0.66417993    0.50000000    0.03170000
opls_166-31    C    0.41471995    0.61589019    0.50000000    0.18490000
opls_145-32    C    0.41933002    0.66072021    0.50000000    -0.21060000
opls_567-33    C    0.07600014    0.54698001    0.50000000    -0.32870000
opls_700-34    C    0.29025992    0.66987007    0.50000000    0.03280000
opls_166-35    C    0.20348002    0.62951990    0.50000000    0.18600000
opls_145-36    C    0.24666001    0.67199006    0.50000000    -0.21090000
opls_716-37    C    0.55531000    0.05205001    0.50000000    -0.15970000
opls_567-38    C    0.52326007    0.00478992    0.50000000    -0.00490000
opls_700-39    C    0.66418009    0.28747987    0.50000000    0.03170000
opls_166-40    C    0.61588991    0.20118008    0.50000000    0.18490000
opls_145-41    C    0.66071994    0.24138984    0.50000000    -0.21060000
opls_567-42    C    0.45301994    0.52901012    0.50000000    -0.32870000
opls_700-43    C    0.33013016    0.62039016    0.50000000    0.03280000
opls_166-44    C    0.37048017    0.57395020    0.50000000    0.18590000
opls_145-45    C    0.32801019    0.57467015    0.50000000    -0.21090000
opls_716-46    C    0.94795018    0.50326007    0.50000000    -0.15970000
opls_567-47    C    0.99521003    0.51847009    0.50000000    -0.00490000
opls_700-48    C    0.71252007    0.37670006    0.50000000    0.03170000
opls_166-49    C    0.79882009    0.41471998    0.50000000    0.18490000
opls_145-50    C    0.75860991    0.41933001    0.50000000    -0.21060000
opls_567-51    C    0.47098987    0.92400000    0.50000000    -0.32850000
opls_700-52    C    0.37961010    0.70974014    0.50000000    0.03280000
opls_166-53    C    0.42605007    0.79652003    0.50000000    0.18590000
opls_145-54    C    0.42532999    0.75334015    0.50000000    -0.21090000
opls_716-55    C    0.49673983    0.44468991    0.50000000    -0.15970000
opls_567-56    C    0.48152990    0.47673999    0.50000000    -0.00490000
opls_700-57    C    0.62330016    0.33582007    0.50000000    0.03170000
opls_166-58    C    0.58528023    0.38411018    0.50000000    0.18490000
opls_145-59    C    0.58067997    0.33928015    0.50000000    -0.21050000
opls_167-60    O    0.84096996    0.37343011    0.50000000    -0.33650000
opls_167-61    O    0.39146982    0.84476992    0.50000000    -0.33480000
opls_167-62    O    0.62656989    0.46754004    0.50000000    -0.33690000
opls_167-63    O    0.15524014    0.54671016    0.50000000    -0.33510000
opls_167-64    O    0.53245983    0.15902985    0.50000000    -0.33690000
opls_167-65    O    0.45329010    0.60853016    0.50000000    -0.33500000
opls_167-66    O    0.15903004    0.62656989    0.50000000    -0.33770000
opls_167-67    O    0.60853005    0.15523996    0.50000000    -0.33410000
opls_167-68    O    0.37343011    0.53245996    0.50000000    -0.33770000
opls_167-69    O    0.84476005    0.45329020    0.50000000    -0.33510000
opls_167-70    O    0.46754017    0.84097015    0.50000000    -0.33690000
opls_167-71    O    0.54671009    0.39147021    0.50000000    -0.33510000
opls_146-72    H    0.75646996    0.29569989    0.50000000    0.11070000
opls_146-73    H    0.30955011    0.76591022    0.50000000    0.11070000
opls_570-74    H    0.40525996    0.93205000    0.50000000    0.11990000
opls_146-75    H    0.70430022    0.46077016    0.50000000    0.11070000
opls_146-76    H    0.23409022    0.54364022    0.50000000    0.11070000
opls_570-77    H    0.06795019    0.47321007    0.50000000    0.11990000
opls_146-78    H    0.53922982    0.24352995    0.50000000    0.11070000
opls_146-79    H    0.45635985    0.69044992    0.50000000    0.11070000
opls_570-80    H    0.52678985    0.59473993    0.50000000    0.11990000
opls_146-81    H    0.24353004    0.70430011    0.50000000    0.11070000
opls_146-82    H    0.69045007    0.23409014    0.50000000    0.11070000
opls_570-83    H    0.59474004    0.06795000    0.50000000    0.11990000
opls_146-84    H    0.29569997    0.53923020    0.50000000    0.11070000
opls_146-85    H    0.76590996    0.45636014    0.50000000    0.11070000
opls_570-86    H    0.93204981    0.52678993    0.50000000    0.11990000
opls_146-87    H    0.46077018    0.75647005    0.50000000    0.11070000
opls_146-88    H    0.54364015    0.30955008    0.50000000    0.11070000
opls_570-89    H    0.47321015    0.40526007    0.50000000    0.11990000
opls_633-90    S    0.57569978    0.53346986    0.50000000    0.21500000
opls_633-91    S    0.46653011    0.04222994    0.50000000    0.21500000
opls_633-92    S    0.95777011    0.42430020    0.50000000    0.21500000
opls_633-93    S    0.42430022    0.46653014    0.50000000    0.21500000
opls_633-94    S    0.53346989    0.95777006    0.50000000    0.21500000
opls_633-95    S    0.04223007    0.57570017    0.50000000    0.21500000
