#======================================================================
# Crystal Data Generated By AuToFF
#----------------------------------------------------------------------

data_AuToFF_phase_1

_cell_length_a                         17.4900
_cell_length_b                         17.4900
_cell_length_c                         3.4960
_cell_angle_alpha                      90.00
_cell_angle_beta                       90.00
_cell_angle_gamma                      120.00
_symmetry_space_group_name_H-M_alt     'P 1'
_symmetry_space_group_IT_number        1

loop_
_space_group_symop_operation_xyz
   'x, y, z'

loop_
   _atom_site_label
   _atom_site_type_symbol
   _atom_site_fract_x
   _atom_site_fract_y
   _atom_site_fract_z
   _atom_site_charge
opls_238-0    N    0.20784046    0.81437045    0.00000000    -0.18270000
opls_238-1    N    0.33030983    0.79205019    0.00000000    -0.17820000
opls_239-2    N    0.25655012    0.90750047    0.00000000    0.02730000
opls_750-3    N    0.09080004    0.62483049    0.00000000    -0.14870000
opls_238-4    N    0.18445972    0.66971990    0.00000000    -0.19630000
opls_750-5    N    0.37502994    0.74383004    0.00000000    -0.15410000
opls_520-6    N    0.48059998    0.37738978    0.00000000    -0.33720000
opls_520-7    N    0.61783000    0.51588985    0.00000000    -0.38420000
opls_520-8    N    0.61695002    0.38118993    0.00000000    -0.39180000
opls_302-9    C    0.24088999    0.75873024    0.00000000    0.47510000
opls_142-10    C    0.33566028    0.65837029    0.00000000    -0.06330000
opls_700-11    C    0.38605995    0.61225026    0.00000000    0.06370000
opls_145-12    C    0.47914016    0.65874001    0.00000000    -0.08000000
opls_523-13    C    0.52549021    0.61301016    0.00000000    -0.07780000
opls_700-14    C    0.47935017    0.52042018    0.00000000    -0.00500000
opls_523-15    C    0.38629975    0.47425988    0.00000000    -0.08000000
opls_145-16    C    0.33993007    0.51996992    0.00000000    -0.07770000
opls_531-17    C    0.52784989    0.47193991    0.00000000    0.38550000
opls_531-18    C    0.66255966    0.47105986    0.00000000    0.43300000
opls_531-19    C    0.52672024    0.33417003    0.00000000    0.41020000
opls_700-20    C    0.47923000    0.23688995    0.00000000    0.01660000
opls_523-21    C    0.38615008    0.18844995    0.00000000    -0.08000000
opls_523-22    C    0.80778001    0.61241993    0.00000000    -0.08180000
opls_145-23    C    0.48121002    0.09937030    0.00000000    -0.07770000
opls_700-24    C    0.38842009    0.05135019    0.00000000    0.06350000
opls_145-25    C    0.34096004    0.09624026    0.00000000    -0.07780000
opls_145-26    C    0.90008979    0.52063013    0.00000000    -0.07780000
opls_700-27    C    0.94702021    0.61318049    0.00000000    0.06350000
opls_145-28    C    0.90055004    0.65879019    0.00000000    -0.07770000
opls_142-29    C    0.04427020    0.66363016    0.00000000    -0.04020000
opls_142-30    C    0.34249045    0.95465043    0.00000000    -0.04200000
opls_700-31    C    0.75873022    0.51784010    0.00000000    -0.00250000
opls_523-32    C    0.52893988    0.19150011    0.00000000    -0.07990000
opls_523-33    C    0.80745024    0.47328013    0.00000000    -0.07780000
opls_910-34    H    0.37627040    0.86460026    0.00000000    0.23590000
opls_910-35    H    0.21962025    0.63174021    0.00000000    0.14910000
opls_144-36    H    0.26003990    0.61725991    0.00000000    -0.18530000
opls_146-37    H    0.51718021    0.73402994    0.00000000    0.04780000
opls_526-38    H    0.60120003    0.65135032    0.00000000    0.04620000
opls_526-39    H    0.34799003    0.39896004    0.00000000    0.04780000
opls_146-40    H    0.26422001    0.48198033    0.00000000    0.04620000
opls_526-41    H    0.34689027    0.22432028    0.00000000    0.04850000
opls_526-42    H    0.77057986    0.65035011    0.00000000    0.04850000
opls_526-43    H    0.60212969    0.23062988    0.00000000    0.05940000
opls_146-44    H    0.52003042    0.06306027    0.00000000    0.04850000
opls_146-45    H    0.26525983    0.05748020    0.00000000    0.04620000
opls_526-46    H    0.76925970    0.39896995    0.00000000    0.05120000
opls_146-47    H    0.93777006    0.48317992    0.00000000    0.04850000
opls_146-48    H    0.93832994    0.73408011    0.00000000    0.04780000
opls_144-49    H    0.07896995    0.73882040    0.00000000    0.02860000
opls_144-50    H    0.38384978    0.92097000    0.00000000    0.02850000
opls_910-51    H    0.13631986    0.79383011    0.00000000    0.23570000
MOF2_Cl-52    Cl    0.17348993    0.93394042    0.00000000    0.05470000
