#======================================================================
# Crystal Data Generated By AuToFF
#----------------------------------------------------------------------

data_AuToFF_phase_1

_cell_length_a                         48.2159
_cell_length_b                         45.3673
_cell_length_c                         3.9277
_cell_angle_alpha                      90.00
_cell_angle_beta                       84.01
_cell_angle_gamma                      90.00
_symmetry_space_group_name_H-M_alt     'P 1'
_symmetry_space_group_IT_number        1

loop_
_space_group_symop_operation_xyz
   'x, y, z'

loop_
   _atom_site_label
   _atom_site_type_symbol
   _atom_site_fract_x
   _atom_site_fract_y
   _atom_site_fract_z
   _atom_site_charge
opls_700-0    C    0.02818999    0.97275990    0.59026130    0.03620000
opls_145-1    C    0.01352999    0.94608011    0.53943020    -0.11300000
opls_700-2    C    0.05621993    0.97285997    0.67462055    0.03190000
opls_700-3    C    0.07408003    0.94595998    0.68304034    0.07230000
opls_145-4    C    0.10100005    0.94625997    0.50331134    -0.12310000
opls_145-5    C    0.11886001    0.92221005    0.51575032    -0.12340000
opls_700-6    C    0.11025006    0.89673002    0.70215064    0.07200000
opls_145-7    C    0.08335011    0.89623010    0.87836990    -0.12250000
opls_145-8    C    0.06581002    0.92069993    0.87371073    -0.11940000
opls_263-9    C    0.26529009    0.78551997    0.49385987    0.02730000
opls_263-10    C    0.28458004    0.76145991    0.47086095    0.02730000
opls_700-11    C    0.27700000    0.73332995    0.58347989    -0.05830000
opls_716-12    C    0.24874999    0.72926006    0.73752198    0.10910000
opls_716-13    C    0.22933991    0.75347001    0.75993979    0.10920000
opls_700-14    C    0.23778005    0.78225991    0.63065021    -0.06550000
opls_700-15    C    0.21612002    0.80563005    0.64480182    0.07280000
opls_700-16    C    0.29525994    0.70691004    0.54877159    0.07330000
opls_145-17    C    0.18974008    0.80002006    0.53409007    -0.12310000
opls_145-18    C    0.16949994    0.82210006    0.54255082    -0.17690000
opls_145-19    C    0.17503000    0.85061994    0.66242989    0.19570000
opls_145-20    C    0.20143994    0.85621009    0.77249140    -0.17080000
opls_145-21    C    0.22139997    0.83394008    0.76929142    -0.12280000
opls_145-22    C    0.32238008    0.70775008    0.64906164    -0.12020000
opls_145-23    C    0.33986002    0.68322999    0.61103047    -0.16280000
opls_145-24    C    0.33053000    0.65666989    0.47494157    0.19990000
opls_145-25    C    0.30290997    0.65535000    0.38730042    -0.17370000
opls_145-26    C    0.28568990    0.68012004    0.41979177    -0.12620000
opls_142-27    C    0.12904993    0.87122002    0.71774097    0.03070000
opls_700-28    C    0.44346994    0.52711997    0.33475925    0.03190000
opls_700-29    C    0.47165007    0.52722997    0.41433132    0.03600000
opls_145-30    C    0.48641002    0.55388992    0.46299155    -0.11300000
opls_700-31    C    0.42577003    0.44584007    0.32765016    0.07230000
opls_145-32    C    0.43426002    0.42066003    0.13662138    -0.11730000
opls_145-33    C    0.41750991    0.39553996    0.14441142    -0.12230000
opls_700-34    C    0.39110990    0.39520007    0.33375061    0.07170000
opls_145-35    C    0.38197998    0.42082998    0.51400185    -0.12290000
opls_145-36    C    0.39910004    0.44560002    0.51358969    -0.12250000
opls_142-37    C    0.37386998    0.36828994    0.34682958    0.03070000
opls_700-38    C    0.97180999    0.97275990    0.40974126    0.03620000
opls_145-39    C    0.98647001    0.94608011    0.46056980    -0.11290000
opls_700-40    C    0.94378007    0.97285997    0.32537945    0.03190000
opls_700-41    C    0.92591997    0.94595998    0.31695966    0.07230000
opls_145-42    C    0.89899993    0.94625997    0.49669122    -0.12310000
opls_145-43    C    0.88113999    0.92221005    0.48424968    -0.12340000
opls_700-44    C    0.88974994    0.89673002    0.29784936    0.07200000
opls_145-45    C    0.91665010    0.89623010    0.12163010    -0.12260000
opls_145-46    C    0.93418998    0.92069993    0.12628927    -0.11940000
opls_263-47    C    0.73470991    0.78551997    0.50614013    0.02730000
opls_263-48    C    0.71541993    0.76145991    0.52914161    0.02730000
opls_700-49    C    0.72300000    0.73332995    0.41652011    -0.05820000
opls_716-50    C    0.75124999    0.72926006    0.26248058    0.10910000
opls_716-51    C    0.77066009    0.75347001    0.24006021    0.10920000
opls_700-52    C    0.76221995    0.78225991    0.36934979    -0.06550000
opls_700-53    C    0.78387996    0.80563005    0.35520074    0.07280000
opls_700-54    C    0.70474004    0.70691004    0.45123097    0.07330000
opls_145-55    C    0.81025992    0.80002006    0.46590993    -0.12310000
opls_145-56    C    0.83050003    0.82210006    0.45745174    -0.17690000
opls_145-57    C    0.82497000    0.85061994    0.33757011    0.19570000
opls_145-58    C    0.79856004    0.85621009    0.22751116    -0.17080000
opls_145-59    C    0.77860000    0.83394008    0.23071114    -0.12280000
opls_145-60    C    0.67761989    0.70775008    0.35094092    -0.12020000
opls_145-61    C    0.66013998    0.68322999    0.38896953    -0.16290000
opls_145-62    C    0.66946998    0.65666989    0.52506099    0.19990000
opls_145-63    C    0.69709003    0.65535000    0.61269958    -0.17370000
opls_145-64    C    0.71431008    0.68012004    0.58021079    -0.12630000
opls_142-65    C    0.87095004    0.87122002    0.28226159    0.03070000
opls_700-66    C    0.55653006    0.52711997    0.66524075    0.03190000
opls_700-67    C    0.52834991    0.52722997    0.58567124    0.03600000
opls_145-68    C    0.51358996    0.55388992    0.53701101    -0.11300000
opls_700-69    C    0.57422997    0.44584007    0.67234984    0.07230000
opls_145-70    C    0.56573996    0.42066003    0.86338118    -0.11730000
opls_145-71    C    0.58249007    0.39553996    0.85559114    -0.12230000
opls_700-72    C    0.60889008    0.39520007    0.66625195    0.07170000
opls_145-73    C    0.61802000    0.42082998    0.48600071    -0.12290000
opls_145-74    C    0.60089996    0.44560002    0.48641031    -0.12250000
opls_142-75    C    0.62613002    0.36828994    0.65317042    0.03070000
opls_700-76    C    0.97180999    0.02724010    0.40974126    0.03620000
opls_145-77    C    0.98647001    0.05391989    0.46056980    -0.11300000
opls_700-78    C    0.94378007    0.02714003    0.32537945    0.03190000
opls_700-79    C    0.92591997    0.05404002    0.31695966    0.07230000
opls_145-80    C    0.89899993    0.05374003    0.49669122    -0.12310000
opls_145-81    C    0.88113999    0.07778995    0.48424968    -0.12340000
opls_700-82    C    0.88974994    0.10326998    0.29784936    0.07200000
opls_145-83    C    0.91665010    0.10376990    0.12163010    -0.12260000
opls_145-84    C    0.93418998    0.07930007    0.12628927    -0.11940000
opls_263-85    C    0.73470991    0.21448003    0.50614013    0.02730000
opls_263-86    C    0.71541993    0.23854009    0.52914161    0.02730000
opls_700-87    C    0.72300000    0.26667005    0.41652011    -0.05830000
opls_716-88    C    0.75124999    0.27073994    0.26248058    0.10920000
opls_716-89    C    0.77066009    0.24652999    0.24006021    0.10920000
opls_700-90    C    0.76221995    0.21774009    0.36934979    -0.06550000
opls_700-91    C    0.78387996    0.19436995    0.35520074    0.07280000
opls_700-92    C    0.70474004    0.29308996    0.45123097    0.07330000
opls_145-93    C    0.81025992    0.19997994    0.46590993    -0.12310000
opls_145-94    C    0.83050003    0.17789994    0.45745174    -0.17690000
opls_145-95    C    0.82497000    0.14938006    0.33757011    0.19570000
opls_145-96    C    0.79856004    0.14378991    0.22751116    -0.17080000
opls_145-97    C    0.77860000    0.16605992    0.23071114    -0.12280000
opls_145-98    C    0.67761989    0.29224992    0.35094092    -0.12020000
opls_145-99    C    0.66013998    0.31677001    0.38896953    -0.16290000
opls_145-100    C    0.66946998    0.34333011    0.52506099    0.19990000
opls_145-101    C    0.69709003    0.34465000    0.61269958    -0.17370000
opls_145-102    C    0.71431008    0.31987996    0.58021079    -0.12630000
opls_142-103    C    0.87095004    0.12877998    0.28226159    0.03070000
opls_700-104    C    0.55653006    0.47288003    0.66524075    0.03190000
opls_700-105    C    0.52834991    0.47277003    0.58567124    0.03600000
opls_145-106    C    0.51358996    0.44611008    0.53701101    -0.11300000
opls_700-107    C    0.57422997    0.55415993    0.67234984    0.07230000
opls_145-108    C    0.56573996    0.57933997    0.86338118    -0.11730000
opls_145-109    C    0.58249007    0.60446004    0.85559114    -0.12230000
opls_700-110    C    0.60889008    0.60479993    0.66625195    0.07170000
opls_145-111    C    0.61802000    0.57917002    0.48600071    -0.12290000
opls_145-112    C    0.60089996    0.55439998    0.48641031    -0.12250000
opls_142-113    C    0.62613002    0.63171006    0.65317042    0.03070000
opls_700-114    C    0.02818999    0.02724010    0.59026130    0.03620000
opls_145-115    C    0.01352999    0.05391989    0.53943020    -0.11300000
opls_700-116    C    0.05621993    0.02714003    0.67462055    0.03190000
opls_700-117    C    0.07408003    0.05404002    0.68304034    0.07230000
opls_145-118    C    0.10100005    0.05374003    0.50331134    -0.12310000
opls_145-119    C    0.11886001    0.07778995    0.51575032    -0.12340000
opls_700-120    C    0.11025006    0.10326998    0.70215064    0.07200000
opls_145-121    C    0.08335011    0.10376990    0.87836990    -0.12260000
opls_145-122    C    0.06581002    0.07930007    0.87371073    -0.11940000
opls_263-123    C    0.26529009    0.21448003    0.49385987    0.02730000
opls_263-124    C    0.28458004    0.23854009    0.47086095    0.02730000
opls_700-125    C    0.27700000    0.26667005    0.58347989    -0.05830000
opls_716-126    C    0.24874999    0.27073994    0.73752198    0.10910000
opls_716-127    C    0.22933991    0.24652999    0.75993979    0.10930000
opls_700-128    C    0.23778005    0.21774009    0.63065021    -0.06550000
opls_700-129    C    0.21612002    0.19436995    0.64480182    0.07280000
opls_700-130    C    0.29525994    0.29308996    0.54877159    0.07330000
opls_145-131    C    0.18974008    0.19997994    0.53409007    -0.12310000
opls_145-132    C    0.16949994    0.17789994    0.54255082    -0.17690000
opls_145-133    C    0.17503000    0.14938006    0.66242989    0.19570000
opls_145-134    C    0.20143994    0.14378991    0.77249140    -0.17080000
opls_145-135    C    0.22139997    0.16605992    0.76929142    -0.12270000
opls_145-136    C    0.32238008    0.29224992    0.64906164    -0.12020000
opls_145-137    C    0.33986002    0.31677001    0.61103047    -0.16280000
opls_145-138    C    0.33053000    0.34333011    0.47494157    0.19990000
opls_145-139    C    0.30290997    0.34465000    0.38730042    -0.17370000
opls_145-140    C    0.28568990    0.31987996    0.41979177    -0.12620000
opls_142-141    C    0.12904993    0.12877998    0.71774097    0.03070000
opls_700-142    C    0.44346994    0.47288003    0.33475925    0.03190000
opls_700-143    C    0.47165007    0.47277003    0.41433132    0.03600000
opls_145-144    C    0.48641002    0.44611008    0.46299155    -0.11300000
opls_700-145    C    0.42577003    0.55415993    0.32765016    0.07230000
opls_145-146    C    0.43426002    0.57933997    0.13662138    -0.11730000
opls_145-147    C    0.41750991    0.60446004    0.14441142    -0.12230000
opls_700-148    C    0.39110990    0.60479993    0.33375061    0.07170000
opls_145-149    C    0.38197998    0.57917002    0.51400185    -0.12290000
opls_145-150    C    0.39910004    0.55439998    0.51358969    -0.12240000
opls_142-151    C    0.37386998    0.63171006    0.34682958    0.03070000
opls_700-152    C    0.01399997    0.00000000    0.54780136    0.00230000
opls_145-153    C    0.06899009    0.00000000    0.72611212    -0.16270000
opls_700-154    C    0.98600001    0.00000000    0.45220120    0.00230000
opls_145-155    C    0.93101010    0.00000000    0.27389044    -0.16270000
opls_700-156    C    0.48592010    0.50000000    0.45459991    0.00260000
opls_145-157    C    0.43055009    0.50000000    0.28746093    -0.15020000
opls_700-158    C    0.51408011    0.50000000    0.54540009    0.00260000
opls_145-159    C    0.56945009    0.50000000    0.71254163    -0.15020000
opls_750-160    N    0.15594997    0.87419000    0.65750191    -0.28270000
opls_750-161    N    0.65272006    0.63106004    0.55635939    -0.28130000
opls_750-162    N    0.79606008    0.25287994    0.09028050    -0.34960000
opls_750-163    N    0.76132004    0.29611989    0.12972990    -0.34960000
opls_750-164    N    0.84405001    0.87419000    0.34250065    -0.28260000
opls_750-165    N    0.34727994    0.63106004    0.44364061    -0.28130000
opls_750-166    N    0.20393990    0.25287994    0.90972206    -0.34940000
opls_750-167    N    0.23867996    0.29611989    0.87027010    -0.34970000
opls_750-168    N    0.84405001    0.12581000    0.34250065    -0.28260000
opls_750-169    N    0.34727994    0.36893996    0.44364061    -0.28130000
opls_750-170    N    0.20393990    0.74712006    0.90972206    -0.34960000
opls_750-171    N    0.23867996    0.70388011    0.87027010    -0.34970000
opls_750-172    N    0.15594997    0.12581000    0.65750191    -0.28260000
opls_750-173    N    0.65272006    0.36893996    0.55635939    -0.28130000
opls_750-174    N    0.79606008    0.74712006    0.09028050    -0.34960000
opls_750-175    N    0.76132004    0.70388011    0.12972990    -0.34960000
opls_202-176    S    0.79682006    0.29076008    0.96730129    0.46630000
opls_202-177    S    0.20317992    0.29076008    0.03270127    0.46620000
opls_202-178    S    0.20317992    0.70923992    0.03270127    0.46620000
opls_202-179    S    0.79682006    0.70923992    0.96730129    0.46620000
opls_146-180    H    0.10804997    0.96529990    0.34897997    0.11290000
opls_146-181    H    0.13950002    0.92309990    0.37492032    0.11670000
opls_146-182    H    0.07631990    0.87697990    0.02877169    0.11570000
opls_146-183    H    0.04569993    0.92003998    0.02584051    0.11890000
opls_146-184    H    0.18491009    0.77846996    0.43375138    0.11580000
opls_146-185    H    0.14960010    0.81737992    0.44650011    0.11640000
opls_146-186    H    0.20624007    0.87800993    0.86609221    0.11580000
opls_146-187    H    0.24115010    0.83882995    0.86694980    0.12060000
opls_146-188    H    0.33007002    0.72758000    0.76274041    0.11780000
opls_146-189    H    0.36063995    0.68461006    0.69428125    0.11670000
opls_146-190    H    0.29519006    0.63495998    0.28535150    0.11470000
opls_146-191    H    0.26479999    0.67852991    0.33994066    0.11610000
opls_144-192    H    0.11954006    0.84968997    0.79501161    0.03870000
opls_146-193    H    0.42491008    0.37620996    0.99770113    0.11420000
opls_146-194    H    0.36166995    0.42115004    0.66352044    0.11610000
opls_146-195    H    0.39182996    0.46466001    0.66646955    0.11270000
opls_144-196    H    0.38445008    0.34737002    0.26555000    0.03990000
opls_146-197    H    0.52346009    0.57506001    0.55839970    0.13110000
opls_146-198    H    0.02337998    0.92493999    0.56340960    0.12640000
opls_146-199    H    0.45409007    0.42045989    0.97819915    0.11890000
opls_146-200    H    0.89195003    0.96529990    0.65102003    0.11290000
opls_146-201    H    0.86049998    0.92309990    0.62507968    0.11670000
opls_146-202    H    0.92368008    0.87697990    0.97123087    0.11580000
opls_146-203    H    0.95430007    0.92003998    0.97415949    0.11900000
opls_146-204    H    0.81509010    0.77846996    0.56625118    0.11590000
opls_146-205    H    0.85040011    0.81737992    0.55349989    0.11630000
opls_146-206    H    0.79375991    0.87800993    0.13391035    0.11580000
opls_146-207    H    0.75885010    0.83882995    0.13305020    0.12070000
opls_146-208    H    0.66992998    0.72758000    0.23725959    0.11780000
opls_146-209    H    0.63936003    0.68461006    0.30572131    0.11680000
opls_146-210    H    0.70480992    0.63495998    0.71465106    0.11470000
opls_146-211    H    0.73519999    0.67852991    0.66006190    0.11610000
opls_144-212    H    0.88045992    0.84968997    0.20499095    0.03870000
opls_146-213    H    0.57508990    0.37620996    0.00230143    0.11420000
opls_146-214    H    0.63833005    0.42115004    0.33647956    0.11610000
opls_146-215    H    0.60817004    0.46466001    0.33353045    0.11270000
opls_144-216    H    0.61554992    0.34737002    0.73445000    0.03990000
opls_146-217    H    0.47653991    0.57506001    0.44160030    0.13110000
opls_146-218    H    0.97662002    0.92493999    0.43659040    0.12640000
opls_146-219    H    0.54590993    0.42045989    0.02180085    0.11890000
opls_146-220    H    0.89195003    0.03470010    0.65102003    0.11300000
opls_146-221    H    0.86049998    0.07690010    0.62507968    0.11670000
opls_146-222    H    0.92368008    0.12302010    0.97123087    0.11570000
opls_146-223    H    0.95430007    0.07996002    0.97415949    0.11890000
opls_146-224    H    0.81509010    0.22153004    0.56625118    0.11580000
opls_146-225    H    0.85040011    0.18262008    0.55349989    0.11630000
opls_146-226    H    0.79375991    0.12199007    0.13391035    0.11580000
opls_146-227    H    0.75885010    0.16117005    0.13305020    0.12060000
opls_146-228    H    0.66992998    0.27242000    0.23725959    0.11780000
opls_146-229    H    0.63936003    0.31538994    0.30572131    0.11670000
opls_146-230    H    0.70480992    0.36504002    0.71465106    0.11480000
opls_146-231    H    0.73519999    0.32147009    0.66006190    0.11610000
opls_144-232    H    0.88045992    0.15031003    0.20499095    0.03870000
opls_146-233    H    0.57508990    0.62379004    0.00230143    0.11420000
opls_146-234    H    0.63833005    0.57884996    0.33647956    0.11610000
opls_146-235    H    0.60817004    0.53533999    0.33353045    0.11270000
opls_144-236    H    0.61554992    0.65262998    0.73445000    0.03990000
opls_146-237    H    0.47653991    0.42493999    0.44160030    0.13110000
opls_146-238    H    0.97662002    0.07506001    0.43659040    0.12650000
opls_146-239    H    0.54590993    0.57954011    0.02180085    0.11890000
opls_146-240    H    0.10804997    0.03470010    0.34897997    0.11290000
opls_146-241    H    0.13950002    0.07690010    0.37492032    0.11670000
opls_146-242    H    0.07631990    0.12302010    0.02877169    0.11570000
opls_146-243    H    0.04569993    0.07996002    0.02584051    0.11890000
opls_146-244    H    0.18491009    0.22153004    0.43375138    0.11580000
opls_146-245    H    0.14960010    0.18262008    0.44650011    0.11630000
opls_146-246    H    0.20624007    0.12199007    0.86609221    0.11580000
opls_146-247    H    0.24115010    0.16117005    0.86694980    0.12070000
opls_146-248    H    0.33007002    0.27242000    0.76274041    0.11780000
opls_146-249    H    0.36063995    0.31538994    0.69428125    0.11670000
opls_146-250    H    0.29519006    0.36504002    0.28535150    0.11470000
opls_146-251    H    0.26479999    0.32147009    0.33994066    0.11610000
opls_144-252    H    0.11954006    0.15031003    0.79501161    0.03870000
opls_146-253    H    0.42491008    0.62379004    0.99770113    0.11430000
opls_146-254    H    0.36166995    0.57884996    0.66352044    0.11610000
opls_146-255    H    0.39182996    0.53533999    0.66646955    0.11270000
opls_144-256    H    0.38445008    0.65262998    0.26555000    0.03990000
opls_146-257    H    0.52346009    0.42493999    0.55839970    0.13110000
opls_146-258    H    0.02337998    0.07506001    0.56340960    0.12640000
opls_146-259    H    0.45409007    0.57954011    0.97819915    0.11900000
opls_146-260    H    0.09006996    0.00000000    0.80223077    0.11410000
opls_146-261    H    0.90993004    0.00000000    0.19776923    0.11410000
opls_146-262    H    0.40930995    0.50000000    0.21673105    0.11430000
opls_146-263    H    0.59069003    0.50000000    0.78327151    0.11440000
opls_264-264    Cl    0.27716992    0.81968995    0.32334938    -0.08010000
opls_264-265    Cl    0.31850999    0.76827010    0.27551091    -0.08010000
opls_264-266    Cl    0.72283008    0.81968995    0.67665062    -0.08010000
opls_264-267    Cl    0.68148999    0.76827010    0.72449165    -0.08010000
opls_264-268    Cl    0.72283008    0.18031005    0.67665062    -0.08010000
opls_264-269    Cl    0.68148999    0.23172990    0.72449165    -0.08010000
opls_264-270    Cl    0.27716992    0.18031005    0.32334938    -0.08010000
opls_264-271    Cl    0.31850999    0.23172990    0.27551091    -0.08010000
