#======================================================================
# Crystal Data Generated By AuToFF
#----------------------------------------------------------------------

data_AuToFF_phase_1

_cell_length_a                         37.2718
_cell_length_b                         37.2718
_cell_length_c                         3.5215
_cell_angle_alpha                      90.00
_cell_angle_beta                       90.00
_cell_angle_gamma                      120.00
_symmetry_space_group_name_H-M_alt     'P 1'
_symmetry_space_group_IT_number        1

loop_
_space_group_symop_operation_xyz
   'x, y, z'

loop_
   _atom_site_label
   _atom_site_type_symbol
   _atom_site_fract_x
   _atom_site_fract_y
   _atom_site_fract_z
   _atom_site_charge
opls_700-0    C    0.28981008    0.64218006    0.50947892    0.06660000
opls_700-1    C    0.35781999    0.64762985    0.50947892    0.06660000
opls_700-2    C    0.35236977    0.71018978    0.50947892    0.06660000
opls_700-3    C    0.71018992    0.35781994    0.50947892    0.06660000
opls_700-4    C    0.64217985    0.35236984    0.50947892    0.06660000
opls_700-5    C    0.64763007    0.28980991    0.50947892    0.06660000
opls_145-6    C    0.31458979    0.62380984    0.50941076    -0.15800000
opls_145-7    C    0.37618989    0.69077985    0.50941076    -0.15800000
opls_145-8    C    0.30921990    0.68540999    0.50941076    -0.15800000
opls_145-9    C    0.68541005    0.37618985    0.50941076    -0.15800000
opls_145-10    C    0.62380996    0.30921984    0.50941076    -0.15800000
opls_145-11    C    0.69078010    0.31459001    0.50941076    -0.15800000
opls_700-12    C    0.24366002    0.61622984    0.51129064    0.07390000
opls_700-13    C    0.38377007    0.62742992    0.51129064    0.07390000
opls_700-14    C    0.37257002    0.75633993    0.51129064    0.07390000
opls_700-15    C    0.75633982    0.38376985    0.51129064    0.07390000
opls_700-16    C    0.61622993    0.37257008    0.51129064    0.07390000
opls_700-17    C    0.62742998    0.24366007    0.51129064    0.07390000
opls_145-18    C    0.36807007    0.58668989    0.38149084    -0.10910000
opls_145-19    C    0.41331003    0.78137995    0.38149084    -0.10910000
opls_145-20    C    0.21862001    0.63192984    0.38149084    -0.10910000
opls_145-21    C    0.63192977    0.41330980    0.38149084    -0.10910000
opls_145-22    C    0.58668997    0.21862005    0.38149084    -0.10910000
opls_145-23    C    0.78137983    0.36806985    0.38149084    -0.10910000
opls_145-24    C    0.39171000    0.56756995    0.38659094    -0.15670000
opls_145-25    C    0.43242985    0.82413991    0.38659094    -0.15670000
opls_145-26    C    0.17585999    0.60828983    0.38659094    -0.15670000
opls_145-27    C    0.60829000    0.43243005    0.38659094    -0.15670000
opls_145-28    C    0.56757015    0.17586009    0.38659094    -0.15670000
opls_145-29    C    0.82413985    0.39170986    0.38659094    -0.15670000
opls_145-30    C    0.43264002    0.58890005    0.52061054    0.21200000
opls_145-31    C    0.41109980    0.84373975    0.52061054    0.21200000
opls_145-32    C    0.15626002    0.56735990    0.52061054    0.21200000
opls_145-33    C    0.56735998    0.41109995    0.52061054    0.21200000
opls_145-34    C    0.58890004    0.15625994    0.52061054    0.21200000
opls_145-35    C    0.84373982    0.43263979    0.52061054    0.21200000
opls_145-36    C    0.44901984    0.63001989    0.64034076    -0.15590000
opls_145-37    C    0.36998001    0.81899993    0.64034076    -0.15590000
opls_145-38    C    0.18100000    0.55097987    0.64034076    -0.15590000
opls_145-39    C    0.55098000    0.36997980    0.64034076    -0.15590000
opls_145-40    C    0.63001999    0.18100007    0.64034076    -0.15590000
opls_145-41    C    0.81899985    0.44901982    0.64034076    -0.15590000
opls_145-42    C    0.42487999    0.64856980    0.64092006    -0.10850000
opls_145-43    C    0.35142991    0.77630999    0.64092006    -0.10850000
opls_145-44    C    0.22368995    0.57511990    0.64092006    -0.10850000
opls_145-45    C    0.57511986    0.35142989    0.64092006    -0.10850000
opls_145-46    C    0.64857009    0.22369001    0.64092006    -0.10850000
opls_145-47    C    0.77631005    0.42488010    0.64092006    -0.10850000
opls_142-48    C    0.44488002    0.53314995    0.57564106    0.02980000
opls_142-49    C    0.46684995    0.91172994    0.57564106    0.02980000
opls_142-50    C    0.08826987    0.55511980    0.57564106    0.02980000
opls_142-51    C    0.55511998    0.46685005    0.57564106    0.02980000
opls_142-52    C    0.53315005    0.08827006    0.57564106    0.02980000
opls_142-53    C    0.91172997    0.44487989    0.57564106    0.02980000
opls_700-54    C    0.47292992    0.51622993    0.56577879    -0.04010000
opls_700-55    C    0.48376979    0.95669974    0.56577879    -0.04010000
opls_700-56    C    0.04330014    0.52707002    0.56577879    -0.04010000
opls_700-57    C    0.52707008    0.48377007    0.56577879    -0.04010000
opls_700-58    C    0.51623006    0.04329995    0.56577879    -0.04010000
opls_700-59    C    0.95669986    0.47292998    0.56577879    -0.04010000
opls_166-60    C    0.45730982    0.47301982    0.55580860    0.20840000
opls_166-61    C    0.52697980    0.98428977    0.55580860    0.20840000
opls_166-62    C    0.01570980    0.54268979    0.55580860    0.20840000
opls_166-63    C    0.54269003    0.52697987    0.55580860    0.20840000
opls_166-64    C    0.47302004    0.01570992    0.55580860    0.20840000
opls_166-65    C    0.98429004    0.45730990    0.55580860    0.20840000
opls_145-66    C    0.48408990    0.45713982    0.56395002    -0.22260000
opls_145-67    C    0.54285994    0.02694997    0.56395002    -0.22260000
opls_145-68    C    0.97305001    0.51590990    0.56395002    -0.22220000
opls_145-69    C    0.51590994    0.54285987    0.56395002    -0.22260000
opls_145-70    C    0.45713991    0.97304972    0.56395002    -0.22220000
opls_145-71    C    0.02694984    0.48408979    0.56395002    -0.22260000
opls_181-72    C    0.60250008    0.59336992    0.40590089    -0.17740000
opls_181-73    C    0.40663008    0.00912996    0.40590089    -0.17740000
opls_181-74    C    0.99086995    0.39749981    0.40590089    -0.17740000
opls_181-75    C    0.39749992    0.40663008    0.40590089    -0.17740000
opls_181-76    C    0.59336976    0.99086973    0.40590089    -0.17740000
opls_181-77    C    0.00912989    0.60249988    0.40590089    -0.17730000
opls_750-78    N    0.45938982    0.57239981    0.51984950    -0.27040000
opls_750-79    N    0.42759978    0.88698982    0.51984950    -0.27050000
opls_750-80    N    0.11300997    0.54061006    0.51984950    -0.27050000
opls_750-81    N    0.54061002    0.42759988    0.51984950    -0.27040000
opls_750-82    N    0.57240006    0.11300987    0.51984950    -0.27050000
opls_750-83    N    0.88699003    0.45938994    0.51984950    -0.27050000
opls_179-84    O    0.41445010    0.44831006    0.53919920    -0.16810000
opls_179-85    O    0.55168989    0.96613982    0.53919920    -0.16810000
opls_179-86    O    0.03385985    0.58554981    0.53919920    -0.16810000
opls_179-87    O    0.58554990    0.55168994    0.53919920    -0.16810000
opls_179-88    O    0.44830996    0.03385987    0.53919920    -0.16810000
opls_179-89    O    0.96613999    0.41444988    0.53919920    -0.16810000
opls_146-90    H    0.29982998    0.59003982    0.50962942    0.10930000
opls_146-91    H    0.40995986    0.70978982    0.50962942    0.10930000
opls_146-92    H    0.29021000    0.70017005    0.50962942    0.10930000
opls_146-93    H    0.70016986    0.40995987    0.50962942    0.10930000
opls_146-94    H    0.59003998    0.29020987    0.50962942    0.10940000
opls_146-95    H    0.70979000    0.29982995    0.50962942    0.10930000
opls_146-96    H    0.33673986    0.56939997    0.26377964    0.06840000
opls_146-97    H    0.43060006    0.76733988    0.26377964    0.06840000
opls_146-98    H    0.23265992    0.66325984    0.26377964    0.06840000
opls_146-99    H    0.66326014    0.43060003    0.26377964    0.06840000
opls_146-100    H    0.56939994    0.23266012    0.26377964    0.06840000
opls_146-101    H    0.76733992    0.33673985    0.26377964    0.06840000
opls_146-102    H    0.37847996    0.53613988    0.27277013    0.09250000
opls_146-103    H    0.46385978    0.84233974    0.27277013    0.09250000
opls_146-104    H    0.15765995    0.62151976    0.27277013    0.09250000
opls_146-105    H    0.62151989    0.46385981    0.27277013    0.09250000
opls_146-106    H    0.53614006    0.15765995    0.27277013    0.09250000
opls_146-107    H    0.84233989    0.37847993    0.27277013    0.09250000
opls_146-108    H    0.48079990    0.64700002    0.74740877    0.11500000
opls_146-109    H    0.35299992    0.83379995    0.74740877    0.11500000
opls_146-110    H    0.16619991    0.51920003    0.74740877    0.11500000
opls_146-111    H    0.51920010    0.35299998    0.74740877    0.11500000
opls_146-112    H    0.64700008    0.16620005    0.74740877    0.11500000
opls_146-113    H    0.83380009    0.48079997    0.74740877    0.11500000
opls_146-114    H    0.43844982    0.68014981    0.75146103    0.11460000
opls_146-115    H    0.31984982    0.75829976    0.75146103    0.11460000
opls_146-116    H    0.24169979    0.56154981    0.75146103    0.11460000
opls_146-117    H    0.56155003    0.31984988    0.75146103    0.11460000
opls_146-118    H    0.68015002    0.24169993    0.75146103    0.11460000
opls_146-119    H    0.75830006    0.43844988    0.75146103    0.11460000
opls_144-120    H    0.41156991    0.51088981    0.63860003    0.04780000
opls_144-121    H    0.48910997    0.90067981    0.63860003    0.04780000
opls_144-122    H    0.09931997    0.58843007    0.63860003    0.04780000
opls_144-123    H    0.58842993    0.48910988    0.63860003    0.04780000
opls_144-124    H    0.51088988    0.09931988    0.63860003    0.04780000
opls_144-125    H    0.90068003    0.41156993    0.63860003    0.04780000
opls_146-126    H    0.47266985    0.42381994    0.57064035    0.13730000
opls_146-127    H    0.57618000    0.04885011    0.57064035    0.13730000
opls_146-128    H    0.95114988    0.52732995    0.57064035    0.13730000
opls_146-129    H    0.52733015    0.57618006    0.57064035    0.13730000
opls_146-130    H    0.42382000    0.95114989    0.57064035    0.13730000
opls_146-131    H    0.04885012    0.47267005    0.57064035    0.13730000
opls_185-132    H    0.58332010    0.59569005    0.18082919    0.10830000
opls_185-133    H    0.40431011    0.98763009    0.18082919    0.10830000
opls_185-134    H    0.01237005    0.41667986    0.18082919    0.10830000
opls_185-135    H    0.41667990    0.40430995    0.18082919    0.10830000
opls_185-136    H    0.59568989    0.01236991    0.18082919    0.10830000
opls_185-137    H    0.98762979    0.58331983    0.18082919    0.10830000
opls_185-138    H    0.63352000    0.60309997    0.29309953    0.10520000
opls_185-139    H    0.39689996    0.03042010    0.29309953    0.10520000
opls_185-140    H    0.96958004    0.36647993    0.29309953    0.10520000
opls_185-141    H    0.36648000    0.39690003    0.29309953    0.10520000
opls_185-142    H    0.60310004    0.96957990    0.29309953    0.10520000
opls_185-143    H    0.03041981    0.63351976    0.29309953    0.10520000
opls_185-144    H    0.60576982    0.61503987    0.63593071    0.07760000
opls_185-145    H    0.38496008    0.99073000    0.63593071    0.07760000
opls_185-146    H    0.00926994    0.39422981    0.63593071    0.07760000
opls_185-147    H    0.39423003    0.38495982    0.63593071    0.07760000
opls_185-148    H    0.61503992    0.00927000    0.63593071    0.07760000
opls_185-149    H    0.99072990    0.60576988    0.63593071    0.07760000
