#======================================================================
# Crystal Data Generated By AuToFF
#----------------------------------------------------------------------

data_AuToFF_phase_1

_cell_length_a                         36.9611
_cell_length_b                         36.9611
_cell_length_c                         4.0507
_cell_angle_alpha                      90.00
_cell_angle_beta                       90.00
_cell_angle_gamma                      120.00
_symmetry_space_group_name_H-M_alt     'P 1'
_symmetry_space_group_IT_number        1

loop_
_space_group_symop_operation_xyz
   'x, y, z'

loop_
   _atom_site_label
   _atom_site_type_symbol
   _atom_site_fract_x
   _atom_site_fract_y
   _atom_site_fract_z
   _atom_site_charge
opls_531-0    C    0.29088999    0.64616009    0.49992100    0.37240000
opls_700-1    C    0.24476987    0.62393995    0.47935912    0.00070000
opls_523-2    C    0.35735991    0.57961995    0.59750907    -0.12390000
opls_145-3    C    0.37752006    0.55633012    0.56182882    -0.15790000
opls_917-4    C    0.41650014    0.57370010    0.40338954    0.19750000
opls_145-5    C    0.43521993    0.61487008    0.28769102    -0.15980000
opls_523-6    C    0.41547018    0.63844014    0.32786926    -0.12230000
opls_701-7    C    0.42589004    0.51011005    0.50915891    0.07120000
opls_700-8    C    0.46389983    0.50412990    0.53822055    -0.03760000
opls_166-9    C    0.45987980    0.46422987    0.57597946    0.23380000
opls_145-10    C    0.49589997    0.46051001    0.56533932    -0.23720000
opls_181-11    C    0.58404014    0.60600014    0.79599082    -0.18810000
opls_423-12    C    0.39029014    0.47548006    0.33449034    0.24840000
opls_531-13    C    0.35383992    0.64472988    0.49992100    0.37240000
opls_700-14    C    0.37605992    0.62082992    0.47935912    0.00070000
opls_523-15    C    0.42037998    0.77774018    0.59750907    -0.12390000
opls_145-16    C    0.44367011    0.82119012    0.56182882    -0.15790000
opls_917-17    C    0.42630008    0.84280013    0.40338954    0.19750000
opls_145-18    C    0.38513005    0.82035006    0.28769102    -0.15980000
opls_523-19    C    0.36155994    0.77703008    0.32786926    -0.12230000
opls_701-20    C    0.48989011    0.91577997    0.50915891    0.07120000
opls_700-21    C    0.49586995    0.95977007    0.53822055    -0.03760000
opls_166-22    C    0.53577003    0.99565001    0.57597946    0.23380000
opls_145-23    C    0.53949012    0.03539008    0.56533932    -0.23720000
opls_181-24    C    0.39400015    0.97804010    0.79599082    -0.18810000
opls_423-25    C    0.52451985    0.91480994    0.33449034    0.24840000
opls_531-26    C    0.35527009    0.70911002    0.49992100    0.37240000
opls_700-27    C    0.37916994    0.75523013    0.47935912    0.00070000
opls_523-28    C    0.22225999    0.64264017    0.59750907    -0.12390000
opls_145-29    C    0.17880999    0.62248006    0.56182882    -0.15790000
opls_917-30    C    0.15719993    0.58350008    0.40338954    0.19750000
opls_145-31    C    0.17965018    0.56478018    0.28769102    -0.15980000
opls_523-32    C    0.22297003    0.58453010    0.32786926    -0.12230000
opls_701-33    C    0.08422012    0.57410998    0.50915891    0.07120000
opls_700-34    C    0.04022996    0.53610003    0.53822055    -0.03760000
opls_166-35    C    0.00435017    0.54012012    0.57597946    0.23380000
opls_145-36    C    0.96460992    0.50409991    0.56533932    -0.23720000
opls_181-37    C    0.02196014    0.41596007    0.79599082    -0.18810000
opls_423-38    C    0.08519000    0.60971001    0.33449034    0.24840000
opls_531-39    C    0.70911001    0.35383991    0.49992100    0.37240000
opls_700-40    C    0.75523013    0.37606005    0.47935912    0.00070000
opls_523-41    C    0.64264009    0.42038005    0.59750907    -0.12390000
opls_145-42    C    0.62247994    0.44366988    0.56182882    -0.15790000
opls_917-43    C    0.58349986    0.42629990    0.40338954    0.19750000
opls_145-44    C    0.56478007    0.38512992    0.28769102    -0.15980000
opls_523-45    C    0.58452982    0.36155986    0.32786926    -0.12230000
opls_701-46    C    0.57410996    0.48988995    0.50915891    0.07120000
opls_700-47    C    0.53610017    0.49587010    0.53822055    -0.03760000
opls_166-48    C    0.54012020    0.53577013    0.57597946    0.23380000
opls_145-49    C    0.50410003    0.53948999    0.56533932    -0.23720000
opls_181-50    C    0.41596002    0.39400017    0.79599082    -0.18810000
opls_423-51    C    0.60970986    0.52451994    0.33449034    0.24840000
opls_531-52    C    0.64616008    0.35527012    0.49992100    0.37240000
opls_700-53    C    0.62394008    0.37917008    0.47935912    0.00070000
opls_523-54    C    0.57962018    0.22226013    0.59750907    -0.12390000
opls_145-55    C    0.55632989    0.17880988    0.56182882    -0.15790000
opls_917-56    C    0.57369992    0.15719987    0.40338954    0.19750000
opls_145-57    C    0.61486995    0.17964994    0.28769102    -0.15980000
opls_523-58    C    0.63844006    0.22296992    0.32786926    -0.12230000
opls_701-59    C    0.51010989    0.08422003    0.50915891    0.07120000
opls_700-60    C    0.50413005    0.04022993    0.53822055    -0.03760000
opls_166-61    C    0.46422997    0.00434999    0.57597946    0.23380000
opls_145-62    C    0.46050988    0.96460992    0.56533932    -0.23720000
opls_181-63    C    0.60599985    0.02195990    0.79599082    -0.18810000
opls_423-64    C    0.47548015    0.08519006    0.33449034    0.24850000
opls_531-65    C    0.64472991    0.29088998    0.49992100    0.37240000
opls_700-66    C    0.62083006    0.24476987    0.47935912    0.00070000
opls_523-67    C    0.77774016    0.35736014    0.59750907    -0.12390000
opls_145-68    C    0.82119001    0.37751994    0.56182882    -0.15790000
opls_917-69    C    0.84280007    0.41649992    0.40338954    0.19750000
opls_145-70    C    0.82034997    0.43522013    0.28769102    -0.15980000
opls_523-71    C    0.77702997    0.41546990    0.32786926    -0.12220000
opls_701-72    C    0.91577988    0.42589002    0.50915891    0.07120000
opls_700-73    C    0.95977004    0.46389997    0.53822055    -0.03760000
opls_166-74    C    0.99564983    0.45987988    0.57597946    0.23390000
opls_145-75    C    0.03539008    0.49590009    0.56533932    -0.23720000
opls_181-76    C    0.97803986    0.58403993    0.79599082    -0.18810000
opls_423-77    C    0.91481000    0.39028999    0.33449034    0.24840000
opls_520-78    N    0.31152014    0.62444012    0.49915076    -0.43650000
opls_900-79    N    0.43685005    0.54982013    0.34291110    -0.39690000
opls_753-80    N    0.36209003    0.44876996    0.19706964    -0.28000000
opls_520-81    N    0.37555995    0.68708014    0.49915076    -0.43650000
opls_900-82    N    0.45018019    0.88703016    0.34291110    -0.39690000
opls_753-83    N    0.55122999    0.91332006    0.19706964    -0.28000000
opls_520-84    N    0.31292007    0.68848005    0.49915076    -0.43630000
opls_900-85    N    0.11296991    0.56315003    0.34291110    -0.39690000
opls_753-86    N    0.08667998    0.63790998    0.19706964    -0.28000000
opls_520-87    N    0.68847986    0.37555988    0.49915076    -0.43650000
opls_900-88    N    0.56314995    0.45017987    0.34291110    -0.39680000
opls_753-89    N    0.63790997    0.55123004    0.19706964    -0.28000000
opls_520-90    N    0.62444005    0.31291986    0.49915076    -0.43650000
opls_900-91    N    0.54981996    0.11297016    0.34291110    -0.39680000
opls_753-92    N    0.44877001    0.08667994    0.19706964    -0.28000000
opls_520-93    N    0.68707993    0.31151995    0.49915076    -0.43650000
opls_900-94    N    0.88703009    0.43684997    0.34291110    -0.39690000
opls_753-95    N    0.91332002    0.36209002    0.19706964    -0.28000000
opls_179-96    O    0.41976004    0.42916001    0.61794011    -0.18780000
opls_179-97    O    0.57083991    0.99059990    0.61794011    -0.18780000
opls_179-98    O    0.00940004    0.58024009    0.61794011    -0.18770000
opls_179-99    O    0.58023996    0.57083999    0.61794011    -0.18780000
opls_179-100    O    0.42916009    0.00940010    0.61794011    -0.18780000
opls_179-101    O    0.99059996    0.41975991    0.61794011    -0.18780000
opls_526-102    H    0.32708995    0.56554996    0.71699953    0.12550000
opls_146-103    H    0.36207988    0.52456993    0.65141087    0.12850000
opls_146-104    H    0.46498993    0.62846990    0.16192016    0.12910000
opls_526-105    H    0.43021018    0.66994010    0.23038981    0.12130000
opls_146-106    H    0.49268015    0.42990011    0.57582887    0.12830000
opls_185-107    H    0.57343001    0.62391996    0.64396030    0.07690000
opls_185-108    H    0.61749995    0.62710998    0.85714074    0.07710000
opls_185-109    H    0.56658985    0.59607988    0.03287086    0.07710000
opls_910-110    H    0.45894991    0.56017995    0.15227985    0.28210000
opls_702-111    H    0.41517993    0.51040996    0.76214975    0.05760000
opls_526-112    H    0.43445004    0.76154018    0.71699953    0.12550000
opls_146-113    H    0.47543004    0.83751009    0.65141087    0.12850000
opls_146-114    H    0.37153009    0.83652007    0.16192016    0.12910000
opls_526-115    H    0.33005988    0.76026992    0.23038981    0.12130000
opls_146-116    H    0.57009988    0.06277998    0.57582887    0.12830000
opls_185-117    H    0.37607986    0.94950991    0.64396030    0.07690000
opls_185-118    H    0.37288991    0.99038997    0.85714074    0.07750000
opls_185-119    H    0.40392007    0.97051009    0.03287086    0.07710000
opls_910-120    H    0.43982018    0.89877020    0.15227985    0.28210000
opls_702-121    H    0.48959008    0.90477003    0.76214975    0.05760000
opls_526-122    H    0.23846017    0.67291017    0.71699953    0.12550000
opls_146-123    H    0.16249008    0.63791998    0.65141087    0.12850000
opls_146-124    H    0.16347998    0.53501004    0.16192016    0.12910000
opls_526-125    H    0.23972994    0.56978998    0.23038981    0.12130000
opls_146-126    H    0.93721997    0.50731992    0.57582887    0.12830000
opls_185-127    H    0.05049013    0.42657013    0.64396030    0.07690000
opls_185-128    H    0.00961014    0.38250006    0.85714074    0.07750000
opls_185-129    H    0.02949008    0.43341003    0.03287086    0.07710000
opls_910-130    H    0.10123007    0.54105017    0.15227985    0.28210000
opls_702-131    H    0.09523000    0.58482001    0.76214975    0.05760000
opls_526-132    H    0.67291005    0.43445004    0.71699953    0.12550000
opls_146-133    H    0.63792012    0.47543007    0.65141087    0.12850000
opls_146-134    H    0.53501007    0.37153010    0.16192016    0.12910000
opls_526-135    H    0.56978982    0.33005990    0.23038981    0.12130000
opls_146-136    H    0.50731985    0.57009989    0.57582887    0.12840000
opls_185-137    H    0.42656999    0.37608004    0.64396030    0.07690000
opls_185-138    H    0.38250005    0.37289002    0.85714074    0.07750000
opls_185-139    H    0.43341015    0.40392012    0.03287086    0.07710000
opls_910-140    H    0.54105009    0.43982005    0.15227985    0.28210000
opls_702-141    H    0.58482007    0.48959004    0.76214975    0.05760000
opls_526-142    H    0.56555012    0.23846013    0.71699953    0.12550000
opls_146-143    H    0.52456996    0.16248991    0.65141087    0.12850000
opls_146-144    H    0.62846991    0.16347993    0.16192016    0.12910000
opls_526-145    H    0.66994012    0.23973008    0.23038981    0.12130000
opls_146-146    H    0.42990012    0.93722002    0.57582887    0.12830000
opls_185-147    H    0.62392014    0.05049009    0.64396030    0.07690000
opls_185-148    H    0.62711009    0.00961003    0.85714074    0.07750000
opls_185-149    H    0.59607993    0.02948991    0.03287086    0.07710000
opls_910-150    H    0.56017998    0.10123011    0.15227985    0.28210000
opls_702-151    H    0.51040992    0.09522997    0.76214975    0.05760000
opls_526-152    H    0.76153999    0.32709014    0.71699953    0.12550000
opls_146-153    H    0.83750992    0.36208002    0.65141087    0.12860000
opls_146-154    H    0.83652002    0.46498996    0.16192016    0.12910000
opls_526-155    H    0.76027006    0.43021002    0.23038981    0.12130000
opls_146-156    H    0.06278003    0.49268008    0.57582887    0.12830000
opls_185-157    H    0.94951003    0.57343018    0.64396030    0.07690000
opls_185-158    H    0.99038986    0.61749994    0.85714074    0.07750000
opls_185-159    H    0.97050992    0.56658997    0.03287086    0.07710000
opls_910-160    H    0.89877009    0.45895015    0.15227985    0.28210000
opls_702-161    H    0.90477000    0.41517999    0.76214975    0.05760000
