#======================================================================
# Crystal Data Generated By AuToFF
#----------------------------------------------------------------------

data_AuToFF_phase_1

_cell_length_a                         68.9000
_cell_length_b                         34.8800
_cell_length_c                         3.5300
_cell_angle_alpha                      90.00
_cell_angle_beta                       90.00
_cell_angle_gamma                      121.88
_symmetry_space_group_name_H-M_alt     'P 1'
_symmetry_space_group_IT_number        1

loop_
_space_group_symop_operation_xyz
   'x, y, z'

loop_
   _atom_site_label
   _atom_site_type_symbol
   _atom_site_fract_x
   _atom_site_fract_y
   _atom_site_fract_z
   _atom_site_charge
opls_142-0    C    0.12477008    0.60349018    0.00001983    0.01730000
opls_145-1    C    0.08623995    0.58621013    0.00000000    0.23860000
opls_145-2    C    0.07187005    0.60325012    0.00000000    -0.12390000
opls_145-3    C    0.04812001    0.57380001    0.00001133    -0.08830000
opls_145-4    C    0.03851001    0.52697025    0.00001983    0.07410000
opls_145-5    C    0.05287997    0.50997010    0.00001983    -0.09280000
opls_145-6    C    0.07656996    0.53926997    0.00001133    -0.12400000
opls_700-7    C    0.35411999    0.35631003    0.00001133    -0.17170000
opls_231-8    C    0.34060001    0.37548990    0.00001983    0.44380000
opls_142-9    C    0.20259001    0.62546998    0.00003116    0.01540000
opls_145-10    C    0.21047009    0.56663018    0.00005099    0.23900000
opls_145-11    C    0.20144006    0.52012015    0.00005099    -0.10280000
opls_145-12    C    0.21600998    0.50358019    0.00005949    -0.06910000
opls_700-13    C    0.23981007    0.53355025    0.00005949    0.12750000
opls_145-14    C    0.24884996    0.58002010    0.00005099    -0.08470000
opls_145-15    C    0.23430998    0.59654014    0.00005099    -0.12400000
opls_142-16    C    0.25564997    0.51752010    0.00005949    -0.08620000
opls_700-17    C    0.31658008    0.34767018    0.00001983    -0.12280000
opls_231-18    C    0.30616000    0.30063008    0.00000000    0.44170000
opls_142-19    C    0.19475003    0.75956022    0.99998017    0.01730000
opls_145-20    C    0.22765001    0.83537012    0.99994901    0.24480000
opls_145-21    C    0.25151995    0.86163000    0.99994051    -0.10270000
opls_145-22    C    0.26285996    0.90865998    0.99992068    -0.09270000
opls_145-23    C    0.25047011    0.92997026    0.99992068    0.07500000
opls_145-24    C    0.22650995    0.90366007    0.99992918    -0.08860000
opls_145-25    C    0.21512010    0.85659026    0.99994901    -0.12400000
opls_700-26    C    0.31954005    0.28095019    0.99998867    -0.15760000
opls_231-27    C    0.34349995    0.30889010    0.99998867    0.43910000
opls_142-28    C    0.37920997    0.38733990    0.00001133    0.01730000
opls_145-29    C    0.41769002    0.40430021    0.00000000    0.25340000
opls_145-30    C    0.43196992    0.38702996    0.00000000    -0.12390000
opls_145-31    C    0.45573004    0.41625994    0.00000000    -0.06910000
opls_700-32    C    0.46542001    0.46317005    0.00000000    0.12490000
opls_145-33    C    0.45116993    0.48043997    0.00001133    -0.08470000
opls_145-34    C    0.42746007    0.45128021    0.00001133    -0.12400000
opls_142-35    C    0.49023004    0.49509024    0.00000000    -0.06890000
opls_700-36    C    0.14985005    0.63461019    0.00001983    -0.17240000
opls_231-37    C    0.16341998    0.61554005    0.00003116    0.42510000
opls_142-38    C    0.30146005    0.36575006    0.00003116    0.01540000
opls_145-39    C    0.29363997    0.42466008    0.00005099    0.23890000
opls_145-40    C    0.30269999    0.47118023    0.00005099    -0.10280000
opls_145-41    C    0.28813999    0.48776004    0.00005949    -0.06910000
opls_700-42    C    0.26433995    0.45782003    0.00005949    0.12970000
opls_145-43    C    0.25528003    0.41135018    0.00007082    -0.08490000
opls_145-44    C    0.26979998    0.39478016    0.00005949    -0.12400000
opls_142-45    C    0.24851012    0.47388023    0.00005949    -0.08620000
opls_700-46    C    0.18743000    0.64345026    0.00001983    -0.13440000
opls_231-47    C    0.19778994    0.69047010    0.00000000    0.41720000
opls_142-48    C    0.30911006    0.23144002    0.99998017    0.01730000
opls_145-49    C    0.27618004    0.15568009    0.99996034    0.24790000
opls_145-50    C    0.25231006    0.12944012    0.99994051    -0.10270000
opls_145-51    C    0.24096003    0.08241015    0.99992918    -0.09280000
opls_145-52    C    0.25333003    0.06107015    0.99992068    0.06620000
opls_145-53    C    0.27728005    0.08734996    0.99992918    -0.08850000
opls_145-54    C    0.28869002    0.13442011    0.99994901    -0.12400000
opls_700-55    C    0.18437007    0.71006018    0.99998867    -0.14470000
opls_231-56    C    0.16041992    0.68201999    0.00000000    0.44330000
opls_142-57    C    0.61700999    0.59841025    0.99998867    0.01730000
opls_145-58    C    0.57759012    0.57678024    0.99998867    0.25120000
opls_145-59    C    0.56260996    0.59234007    0.99998867    -0.10270000
opls_145-60    C    0.53900994    0.56178997    0.99998867    -0.06890000
opls_700-61    C    0.53010002    0.51514996    0.99998867    0.13410000
opls_145-62    C    0.54507001    0.49949998    0.99998867    -0.08610000
opls_145-63    C    0.56870995    0.53010005    0.99998867    -0.12390000
opls_142-64    C    0.50534008    0.48229016    0.00000000    -0.06910000
opls_700-65    C    0.85424006    0.37619013    0.00001133    -0.17090000
opls_231-66    C    0.83897009    0.39127020    0.00001133    0.43960000
opls_142-67    C    0.69764998    0.63443024    0.99998017    0.01790000
opls_145-68    C    0.70675007    0.57648009    0.99998867    0.23880000
opls_145-69    C    0.69772009    0.52995014    0.99998867    -0.10280000
opls_145-70    C    0.71220997    0.51324001    0.99998867    -0.06890000
opls_700-71    C    0.73600999    0.54303011    0.99998867    0.12210000
opls_145-72    C    0.74508003    0.58961003    0.99998867    -0.06890000
opls_145-73    C    0.73057003    0.60636000    0.99998867    -0.12370000
opls_142-74    C    0.75172002    0.52652020    0.00000000    -0.06910000
opls_700-75    C    0.81510994    0.36002999    0.00001133    -0.17330000
opls_231-76    C    0.80672011    0.31346021    0.00001133    0.44290000
opls_142-77    C    0.68162008    0.75922023    0.99998867    0.01730000
opls_145-78    C    0.70921002    0.83839998    0.99998867    0.23970000
opls_145-79    C    0.73235997    0.87255998    0.99998867    -0.12400000
opls_145-80    C    0.73889004    0.91798014    0.99998867    -0.08830000
opls_145-81    C    0.72233003    0.92978018    0.99998867    0.07780000
opls_145-82    C    0.69920994    0.89564010    0.99998867    -0.09270000
opls_145-83    C    0.69265008    0.85032020    0.99998867    -0.12380000
opls_700-84    C    0.82198007    0.29807020    0.00001133    -0.18440000
opls_231-85    C    0.84563009    0.32947010    0.00001133    0.44380000
opls_142-86    C    0.87905006    0.41042002    0.00001133    0.01730000
opls_145-87    C    0.91844000    0.43180020    0.00001133    0.24560000
opls_145-88    C    0.93335009    0.41609011    0.00001983    -0.10260000
opls_145-89    C    0.95695005    0.44651023    0.00001983    -0.09280000
opls_145-90    C    0.96600007    0.49314011    0.00001133    0.07800000
opls_145-91    C    0.95108007    0.50892008    0.00001133    -0.09280000
opls_145-92    C    0.92741998    0.47851010    0.00000000    -0.12390000
opls_700-93    C    0.64180994    0.63271003    0.99998867    -0.16840000
opls_231-94    C    0.65711001    0.61770019    0.99998017    0.43910000
opls_142-95    C    0.79845007    0.37467014    0.00000000    0.01790000
opls_145-96    C    0.78938995    0.43266992    0.00000000    0.23870000
opls_145-97    C    0.79844006    0.47921000    0.00000000    -0.10280000
opls_145-98    C    0.78394999    0.49594005    0.99998867    -0.06890000
opls_700-99    C    0.76016004    0.46617999    0.00000000    0.11970000
opls_145-100    C    0.75107001    0.41958995    0.00000000    -0.08610000
opls_145-101    C    0.76557004    0.40282006    0.00000000    -0.12370000
opls_142-102    C    0.74445997    0.48270004    0.00000000    -0.06910000
opls_700-103    C    0.68096001    0.64900015    0.99998017    -0.17330000
opls_231-104    C    0.68932009    0.69556015    0.99998017    0.44340000
opls_142-105    C    0.81434999    0.24970019    0.00001133    0.01730000
opls_145-106    C    0.78674004    0.17054003    0.00001133    0.24010000
opls_145-107    C    0.76358003    0.13639995    0.00000000    -0.12400000
opls_145-108    C    0.75703994    0.09096999    0.00000000    -0.08830000
opls_145-109    C    0.77360009    0.07916016    0.00000000    0.07780000
opls_145-110    C    0.79671999    0.11327998    0.00001133    -0.09270000
opls_145-111    C    0.80329001    0.15859988    0.00001133    -0.12400000
opls_700-112    C    0.67403002    0.71087014    0.99998867    -0.18560000
opls_231-113    C    0.65037999    0.67942027    0.99998867    0.44370000
opls_750-114    N    0.11050005    0.61702021    0.00000000    -0.26180000
opls_750-115    N    0.19522000    0.58278998    0.00003966    -0.22270000
opls_750-116    N    0.21670005    0.78735023    0.99996034    -0.22270000
opls_750-117    N    0.39342004    0.37365996    0.00000000    -0.26180000
opls_750-118    N    0.30886993    0.40844997    0.00003966    -0.22270000
opls_750-119    N    0.28715004    0.20369998    0.99996884    -0.22270000
opls_750-120    N    0.60165004    0.60914001    0.99998867    -0.26190000
opls_750-121    N    0.69130994    0.59219996    0.99998867    -0.26180000
opls_750-122    N    0.70283991    0.79204998    0.99998867    -0.26190000
opls_750-123    N    0.89436999    0.39958020    0.00001133    -0.22270000
opls_750-124    N    0.80482002    0.41692000    0.00000000    -0.26180000
opls_750-125    N    0.79312998    0.21690994    0.00001133    -0.26190000
opls_272-126    O    0.35100990    0.42157991    0.00003116    -0.22470000
opls_272-127    O    0.28274996    0.27403999    0.00000000    -0.22480000
opls_272-128    O    0.35640990    0.28957991    0.99998017    -0.22610000
opls_272-129    O    0.15305010    0.56946016    0.00005099    -0.22460000
opls_272-130    O    0.22120991    0.71714999    0.99998867    -0.22870000
opls_272-131    O    0.14745001    0.70123024    0.00000000    -0.22470000
opls_272-132    O    0.84756007    0.43681023    0.00001133    -0.22460000
opls_272-133    O    0.78357000    0.28317008    0.00000000    -0.22460000
opls_272-134    O    0.86029010    0.31406017    0.00001983    -0.22470000
opls_272-135    O    0.64854993    0.57216995    0.99998017    -0.22460000
opls_272-136    O    0.71246004    0.72590025    0.99998017    -0.22470000
opls_272-137    O    0.63568993    0.69474005    0.00000000    -0.22470000
opls_203-138    S    0.26636998    0.99115014    0.99990935    0.01090000
opls_203-139    S    0.23742006    0.99988014    0.99990085    0.01090000
opls_203-140    S    0.72946994    0.98792007    0.99998867    0.01090000
opls_203-141    S    0.76644006    0.02101014    0.00000000    0.01090000
opls_203-142    S    0.99656996    0.53419005    0.00001983    0.01090000
opls_203-143    S    0.00792006    0.48670023    0.00003966    0.01090000
opls_144-144    H    0.11813999    0.56584014    0.00003966    0.03100000
opls_146-145    H    0.07949996    0.64127999    0.99998867    0.05250000
opls_146-146    H    0.03648009    0.58786011    0.00001133    0.05250000
opls_146-147    H    0.04527009    0.47194023    0.00003116    0.05250000
opls_146-148    H    0.08818002    0.52513998    0.00001133    0.05250000
opls_144-149    H    0.22175003    0.65143005    0.00003116    0.03100000
opls_146-150    H    0.18213005    0.49555009    0.00003966    0.05180000
opls_146-151    H    0.20858004    0.46562021    0.00007082    0.05250000
opls_146-152    H    0.26816007    0.60456011    0.00003966    0.05240000
opls_146-153    H    0.24186998    0.63455009    0.00005099    0.05250000
opls_144-154    H    0.27487996    0.54282011    0.00005949    0.05250000
opls_144-155    H    0.18286993    0.77306999    0.99998867    0.03100000
opls_146-156    H    0.26183002    0.84465011    0.99994901    0.05250000
opls_146-157    H    0.28234002    0.92990004    0.99990085    0.05250000
opls_146-158    H    0.21622006    0.92068014    0.99992068    0.05250000
opls_146-159    H    0.19564000    0.83541030    0.99996884    0.05250000
opls_144-160    H    0.38695004    0.42540995    0.00001983    0.03100000
opls_146-161    H    0.42424997    0.34897004    0.00000000    0.05250000
opls_146-162    H    0.46728009    0.40199017    0.00000000    0.05250000
opls_146-163    H    0.45889998    0.51850022    0.00001983    0.05250000
opls_146-164    H    0.41590998    0.46556011    0.00001983    0.05180000
opls_144-165    H    0.49745006    0.53298000    0.00000000    0.05250000
opls_144-166    H    0.28210991    0.34166989    0.00003116    0.03100000
opls_146-167    H    0.32200999    0.49571012    0.00003966    0.05250000
opls_146-168    H    0.29558005    0.52573015    0.00007082    0.05250000
opls_146-169    H    0.23596998    0.38684021    0.00009065    0.05250000
opls_146-170    H    0.26223011    0.35677021    0.00005949    0.05250000
opls_144-171    H    0.22942999    0.44734990    0.00005949    0.05250000
opls_144-172    H    0.32046009    0.21672019    0.99998017    0.03100000
opls_146-173    H    0.24200996    0.14643993    0.99992918    0.05250000
opls_146-174    H    0.22147993    0.06119001    0.99992918    0.05250000
opls_146-175    H    0.28755996    0.07030997    0.99992068    0.05250000
opls_146-176    H    0.30816996    0.15555989    0.99996034    0.05250000
opls_144-177    H    0.61160998    0.56136997    0.99998867    0.03100000
opls_146-178    H    0.56964003    0.63015994    0.99998867    0.05250000
opls_146-179    H    0.52687997    0.57470012    0.99998867    0.05250000
opls_146-180    H    0.53800994    0.46166998    0.99998867    0.05250000
opls_146-181    H    0.58077995    0.51703999    0.99998867    0.05250000
opls_144-182    H    0.49917993    0.44485991    0.00001133    0.05250000
opls_144-183    H    0.71661000    0.66177019    0.99996884    0.03100000
opls_146-184    H    0.67841995    0.50538007    0.99998867    0.05250000
opls_146-185    H    0.70471002    0.47524998    0.99998867    0.05250000
opls_146-186    H    0.76438999    0.61414026    0.99998867    0.05250000
opls_146-187    H    0.73813003    0.64436995    0.99998867    0.05250000
opls_144-188    H    0.77097997    0.55155011    0.00001133    0.05250000
opls_144-189    H    0.66743001    0.76682999    0.99998867    0.03100000
opls_146-190    H    0.74601004    0.86347007    0.99998867    0.05240000
opls_146-191    H    0.75778006    0.94569013    0.99998867    0.05250000
opls_146-192    H    0.68556006    0.90471009    0.99998867    0.05250000
opls_146-193    H    0.67371007    0.82289011    0.99998867    0.05250000
opls_144-194    H    0.88528009    0.44789011    0.00001133    0.03100000
opls_146-195    H    0.92626003    0.37824999    0.00003116    0.05250000
opls_146-196    H    0.96903998    0.43348022    0.00003116    0.05180000
opls_146-197    H    0.95819003    0.54677000    0.00001983    0.05250000
opls_146-198    H    0.91542006    0.49173019    0.99998017    0.05250000
opls_144-199    H    0.77933006    0.34842004    0.99998867    0.03100000
opls_146-200    H    0.81774997    0.50376014    0.00001133    0.05250000
opls_146-201    H    0.79144994    0.53393008    0.99996884    0.05250000
opls_146-202    H    0.73176006    0.39509011    0.00000000    0.05250000
opls_146-203    H    0.75805993    0.36483003    0.00000000    0.05250000
opls_144-204    H    0.72520002    0.45767012    0.00000000    0.05250000
opls_144-205    H    0.82750008    0.23929016    0.00001133    0.03100000
opls_146-206    H    0.74994999    0.14553003    0.99998867    0.05250000
opls_146-207    H    0.73815002    0.06327013    0.00000000    0.05250000
opls_146-208    H    0.81037006    0.10419008    0.00001983    0.05250000
opls_146-209    H    0.82223001    0.18602018    0.00001133    0.05250000
