#======================================================================
# Crystal Data Generated By AuToFF
#----------------------------------------------------------------------

data_AuToFF_phase_1

_cell_length_a                         25.6603
_cell_length_b                         25.6603
_cell_length_c                         3.8263
_cell_angle_alpha                      90.00
_cell_angle_beta                       90.00
_cell_angle_gamma                      120.00
_symmetry_space_group_name_H-M_alt     'P 1'
_symmetry_space_group_IT_number        1

loop_
_space_group_symop_operation_xyz
   'x, y, z'

loop_
   _atom_site_label
   _atom_site_type_symbol
   _atom_site_fract_x
   _atom_site_fract_y
   _atom_site_fract_z
   _atom_site_charge
opls_750-0    N    0.50762017    0.49040003    0.50000000    -0.21070000
opls_750-1    N    0.50959983    0.01721996    0.50000000    -0.21070000
opls_750-2    N    0.98277999    0.49238001    0.50000000    -0.21070000
opls_145-3    C    0.53693998    0.45709995    0.50000000    0.16110000
opls_145-4    C    0.50761976    0.39606983    0.50000000    -0.24600000
opls_145-5    C    0.53873995    0.36623022    0.50000000    -0.23910000
opls_700-6    C    0.60060989    0.39618008    0.50000000    0.06800000
opls_145-7    C    0.62899993    0.45797024    0.50000000    -0.23750000
opls_145-8    C    0.59751016    0.48738012    0.50000000    -0.24600000
opls_145-9    C    0.63469995    0.36373004    0.50000000    0.06810000
opls_145-10    C    0.69618004    0.39386981    0.50000000    -0.15680000
opls_142-11    C    0.45171987    0.47049000    0.50000000    0.08470000
opls_145-12    C    0.42840984    0.51076995    0.50000000    0.00840000
opls_145-13    C    0.36828998    0.48852985    0.50000000    -0.23860000
opls_145-14    C    0.34527009    0.52583984    0.50000000    -0.23750000
opls_700-15    C    0.38173002    0.58738025    0.50000000    0.07010000
opls_145-16    C    0.44271001    0.60875996    0.50000000    -0.23750000
opls_145-17    C    0.46536989    0.57113993    0.50000000    -0.23860000
opls_145-18    C    0.35674998    0.62830999    0.50000000    0.06810000
opls_145-19    C    0.39328994    0.68939006    0.50000000    -0.15680000
opls_145-20    C    0.54290004    0.07983991    0.50000000    0.16110000
opls_145-21    C    0.60393001    0.11155016    0.50000000    -0.24600000
opls_145-22    C    0.63377007    0.17251008    0.50000000    -0.23920000
opls_700-23    C    0.60381982    0.20443002    0.50000000    0.06800000
opls_145-24    C    0.54202995    0.17103004    0.50000000    -0.23750000
opls_145-25    C    0.51262004    0.11012997    0.50000000    -0.24600000
opls_145-26    C    0.63626981    0.27096988    0.50000000    0.06810000
opls_145-27    C    0.60612992    0.30231023    0.50000000    -0.15680000
opls_142-28    C    0.52951023    0.98123026    0.50000000    0.08470000
opls_145-29    C    0.48923007    0.91764012    0.50000000    0.00840000
opls_145-30    C    0.51146996    0.87975999    0.50000000    -0.23860000
opls_145-31    C    0.47416011    0.81943006    0.50000000    -0.23750000
opls_700-32    C    0.41261989    0.79435004    0.50000000    0.07010000
opls_145-33    C    0.39123994    0.83395005    0.50000000    -0.23740000
opls_145-34    C    0.42885997    0.89423003    0.50000000    -0.23860000
opls_145-35    C    0.37168999    0.72844018    0.50000000    0.06810000
opls_145-36    C    0.31060995    0.70390015    0.50000000    -0.15680000
opls_145-37    C    0.92015998    0.46306014    0.50000000    0.16120000
opls_145-38    C    0.88844984    0.49238001    0.50000000    -0.24590000
opls_145-39    C    0.82749021    0.46126016    0.50000000    -0.23920000
opls_700-40    C    0.79556990    0.39938990    0.50000000    0.06800000
opls_145-41    C    0.82896996    0.37100016    0.50000000    -0.23750000
opls_145-42    C    0.88986980    0.40248991    0.50000000    -0.24600000
opls_145-43    C    0.72902985    0.36530008    0.50000000    0.06810000
opls_145-44    C    0.69769004    0.30381996    0.50000000    -0.15680000
opls_142-45    C    0.01877012    0.54828019    0.50000000    0.08470000
opls_145-46    C    0.08236009    0.57158993    0.50000000    0.00840000
opls_145-47    C    0.12024006    0.63171016    0.50000000    -0.23850000
opls_145-48    C    0.18057020    0.65473010    0.50000000    -0.23730000
opls_700-49    C    0.20564993    0.61827016    0.50000000    0.07010000
opls_145-50    C    0.16605005    0.55728999    0.50000000    -0.23740000
opls_145-51    C    0.10577014    0.53463004    0.50000000    -0.23860000
opls_145-52    C    0.27156003    0.64324983    0.50000000    0.06810000
opls_145-53    C    0.29609994    0.60671024    0.50000000    -0.15670000
opls_146-54    H    0.46074001    0.37070002    0.50000000    0.18270000
opls_146-55    H    0.51246015    0.31958014    0.50000000    0.18260000
opls_146-56    H    0.67552007    0.48542984    0.50000000    0.18260000
opls_146-57    H    0.62039980    0.53449999    0.50000000    0.18290000
opls_146-58    H    0.71863022    0.43995019    0.50000000    0.18270000
opls_144-59    H    0.42100027    0.42431017    0.50000000    0.08950000
opls_146-60    H    0.33881001    0.44189012    0.50000000    0.18270000
opls_146-61    H    0.29855980    0.50452987    0.50000000    0.18260000
opls_146-62    H    0.47462990    0.65432015    0.50000000    0.18260000
opls_146-63    H    0.51215023    0.58924008    0.50000000    0.18280000
opls_146-64    H    0.43894020    0.70670002    0.50000000    0.18270000
opls_146-65    H    0.62929997    0.09003995    0.50000000    0.18270000
opls_146-66    H    0.68041992    0.19288000    0.50000000    0.18260000
opls_146-67    H    0.51457012    0.19009003    0.50000000    0.18260000
opls_146-68    H    0.46550001    0.08589999    0.50000000    0.18280000
opls_146-69    H    0.56004986    0.27868009    0.50000000    0.18280000
opls_144-70    H    0.57569030    0.99669029    0.50000000    0.08950000
opls_146-71    H    0.55810998    0.89692010    0.50000000    0.18270000
opls_146-72    H    0.49546986    0.79403010    0.50000000    0.18260000
opls_146-73    H    0.34568004    0.82031025    0.50000000    0.18260000
opls_146-74    H    0.41075996    0.92291001    0.50000000    0.18270000
opls_146-75    H    0.29330009    0.73223994    0.50000000    0.18270000
opls_146-76    H    0.90996002    0.53926004    0.50000000    0.18270000
opls_146-77    H    0.80711993    0.48753986    0.50000000    0.18270000
opls_146-78    H    0.80991020    0.32448013    0.50000000    0.18260000
opls_146-79    H    0.91410019    0.37960002    0.50000000    0.18280000
opls_146-80    H    0.72132015    0.28137016    0.50000000    0.18280000
opls_144-81    H    0.00331005    0.57899999    0.50000000    0.08950000
opls_146-82    H    0.10308024    0.66119023    0.50000000    0.18270000
opls_146-83    H    0.20596995    0.70144003    0.50000000    0.18260000
opls_146-84    H    0.17968989    0.52537004    0.50000000    0.18270000
opls_146-85    H    0.07708981    0.48784991    0.50000000    0.18270000
opls_146-86    H    0.26776010    0.56106004    0.50000000    0.18270000
