#======================================================================
# Crystal Data Generated By AuToFF
#----------------------------------------------------------------------

data_AuToFF_phase_1

_cell_length_a                         31.8230
_cell_length_b                         31.8230
_cell_length_c                         3.7000
_cell_angle_alpha                      90.00
_cell_angle_beta                       90.00
_cell_angle_gamma                      120.00
_symmetry_space_group_name_H-M_alt     'P 1'
_symmetry_space_group_IT_number        1

loop_
_space_group_symop_operation_xyz
   'x, y, z'

loop_
   _atom_site_label
   _atom_site_type_symbol
   _atom_site_fract_x
   _atom_site_fract_y
   _atom_site_fract_z
   _atom_site_charge
opls_145-0    C    0.61574003    0.30386984    0.98640000    -0.10150000
opls_700-1    C    0.64444984    0.28080994    0.98714054    -0.03820000
opls_234-2    C    0.62212987    0.22476000    0.96778919    0.36660000
opls_142-3    C    0.56435003    0.10855991    0.01490000    0.03200000
opls_700-4    C    0.53074013    0.05297006    0.00714054    0.04700000
opls_145-5    C    0.55034013    0.02155008    0.00620000    -0.13760000
opls_145-6    C    0.47951995    0.03000995    0.00634865    -0.09630000
opls_145-7    C    0.69613013    0.31186998    0.98640000    -0.10150000
opls_700-8    C    0.71919980    0.36364989    0.98714054    -0.03820000
opls_234-9    C    0.77524000    0.39736998    0.96778919    0.36660000
opls_142-10    C    0.89143995    0.45579007    0.01490000    0.03180000
opls_700-11    C    0.94702993    0.47776976    0.00714054    0.04700000
opls_145-12    C    0.97845997    0.52880002    0.00620000    -0.13760000
opls_145-13    C    0.96998994    0.44950005    0.00634865    -0.09600000
opls_145-14    C    0.68812997    0.38425982    0.98640000    -0.10150000
opls_700-15    C    0.63634991    0.35554997    0.98714054    -0.03820000
opls_234-16    C    0.60263013    0.37787001    0.96778919    0.36810000
opls_142-17    C    0.54421002    0.43565003    0.01490000    0.03200000
opls_700-18    C    0.52222976    0.46925982    0.00714054    0.04700000
opls_145-19    C    0.47119995    0.44966006    0.00620000    -0.13760000
opls_145-20    C    0.55049980    0.52047985    0.00634865    -0.09630000
opls_145-21    C    0.38425979    0.69612980    0.98640000    -0.10150000
opls_700-22    C    0.35555003    0.71919986    0.98714054    -0.03820000
opls_234-23    C    0.37787013    0.77524000    0.96778919    0.36810000
opls_142-24    C    0.43564979    0.89143973    0.01490000    0.03200000
opls_700-25    C    0.46925987    0.94702994    0.00714054    0.04700000
opls_145-26    C    0.44965974    0.97845972    0.00620000    -0.13760000
opls_145-27    C    0.52048005    0.96999005    0.00634865    -0.09600000
opls_145-28    C    0.30386987    0.68813002    0.98640000    -0.10150000
opls_700-29    C    0.28080976    0.63634975    0.98714054    -0.03820000
opls_234-30    C    0.22476000    0.60263002    0.96778919    0.36660000
opls_142-31    C    0.10856005    0.54420993    0.01490000    0.03180000
opls_700-32    C    0.05296989    0.52222988    0.00714054    0.04700000
opls_145-33    C    0.02154996    0.47120978    0.00620000    -0.13760000
opls_145-34    C    0.03001006    0.55049995    0.00634865    -0.09630000
opls_145-35    C    0.31186985    0.61573982    0.98640000    -0.10150000
opls_700-36    C    0.36365009    0.64445003    0.98714054    -0.03820000
opls_234-37    C    0.39736987    0.62212999    0.96778919    0.36810000
opls_142-38    C    0.45578998    0.56434997    0.01490000    0.03200000
opls_700-39    C    0.47777006    0.53073982    0.00714054    0.04700000
opls_145-40    C    0.52880005    0.55033994    0.00620000    -0.13760000
opls_145-41    C    0.44950002    0.47951979    0.00634865    -0.09630000
opls_236-42    O    0.64833020    0.20926010    0.86881081    -0.39990000
opls_236-43    O    0.79074010    0.43908006    0.86881081    -0.40670000
opls_236-44    O    0.56092000    0.35167000    0.86881081    -0.40680000
opls_236-45    O    0.35166980    0.79073990    0.86881081    -0.40000000
opls_236-46    O    0.20925990    0.56091994    0.86881081    -0.40670000
opls_236-47    O    0.43908000    0.64833000    0.86881081    -0.40670000
opls_238-48    N    0.57387002    0.19160015    0.05578919    -0.21300000
opls_750-49    N    0.54802993    0.13938010    0.03001892    -0.18320000
opls_238-50    N    0.80839984    0.38226994    0.05578919    -0.21300000
opls_750-51    N    0.86062010    0.40864993    0.03001892    -0.18300000
opls_238-52    N    0.61772982    0.42612991    0.05578919    -0.21300000
opls_750-53    N    0.59134997    0.45196997    0.03001892    -0.18310000
opls_238-54    N    0.42612998    0.80839985    0.05578919    -0.21300000
opls_750-55    N    0.45197007    0.86061990    0.03001892    -0.18300000
opls_238-56    N    0.19160016    0.61773006    0.05578919    -0.21310000
opls_750-57    N    0.13937990    0.59135007    0.03001892    -0.18300000
opls_238-58    N    0.38227018    0.57387009    0.05578919    -0.21300000
opls_750-59    N    0.40865003    0.54803003    0.03001892    -0.18300000
opls_146-60    H    0.57670981    0.28159987    0.97601892    0.11810000
opls_910-61    H    0.55263015    0.20624009    0.13952973    0.26200000
opls_144-62    H    0.60300014    0.12224011    0.02408919    0.12050000
opls_146-63    H    0.58933991    0.03699991    0.00725946    0.11590000
opls_146-64    H    0.46226020    0.05193013    0.00748919    0.11540000
opls_146-65    H    0.71839993    0.29510989    0.97601892    0.11810000
opls_910-66    H    0.79375990    0.34638980    0.13952973    0.26210000
opls_144-67    H    0.87775984    0.48074985    0.02408919    0.11910000
opls_146-68    H    0.96299995    0.55233997    0.00725946    0.11590000
opls_146-69    H    0.94807010    0.41032993    0.00748919    0.11550000
opls_146-70    H    0.70489007    0.42328987    0.97601892    0.11810000
opls_910-71    H    0.65362001    0.44737011    0.13952973    0.24990000
opls_144-72    H    0.51925002    0.39699988    0.02408919    0.12050000
opls_146-73    H    0.44766014    0.41066012    0.00725946    0.11590000
opls_146-74    H    0.58967002    0.53773994    0.00748919    0.11550000
opls_146-75    H    0.42329001    0.71839977    0.97601892    0.11810000
opls_910-76    H    0.44736985    0.79375991    0.13952973    0.26210000
opls_144-77    H    0.39699986    0.87775989    0.02408919    0.12050000
opls_146-78    H    0.41065991    0.96299973    0.00725946    0.11590000
opls_146-79    H    0.53773980    0.94806987    0.00748919    0.11530000
opls_146-80    H    0.28159988    0.70488974    0.97601892    0.11810000
opls_910-81    H    0.20623997    0.65362000    0.13952973    0.24990000
opls_144-82    H    0.12223998    0.51924978    0.02408919    0.11910000
opls_146-83    H    0.03700005    0.44766003    0.00725946    0.11590000
opls_146-84    H    0.05192990    0.58967007    0.00748919    0.11550000
opls_146-85    H    0.29510974    0.57670976    0.97601892    0.11810000
opls_910-86    H    0.34639005    0.55262989    0.13952973    0.26210000
opls_144-87    H    0.48074979    0.60299976    0.02408919    0.11900000
opls_146-88    H    0.55233986    0.58933988    0.00725946    0.11590000
opls_146-89    H    0.41032998    0.46226006    0.00748919    0.11850000
