#======================================================================
# Crystal Data Generated By AuToFF
#----------------------------------------------------------------------

data_AuToFF_phase_1

_cell_length_a                         20.5700
_cell_length_b                         20.5700
_cell_length_c                         11.4300
_cell_angle_alpha                      90.00
_cell_angle_beta                       90.00
_cell_angle_gamma                      90.00
_symmetry_space_group_name_H-M_alt     'P 1'
_symmetry_space_group_IT_number        1

loop_
_space_group_symop_operation_xyz
   'x, y, z'

loop_
   _atom_site_label
   _atom_site_type_symbol
   _atom_site_fract_x
   _atom_site_fract_y
   _atom_site_fract_z
   _atom_site_charge
opls_145-0    C    0.47570977    0.44200000    0.55616010    -0.08740000
opls_700-1    C    0.52063977    0.43984006    0.46409974    -0.06770000
opls_234-2    C    0.55154983    0.38515022    0.40597025    0.50040000
opls_700-3    C    0.54405980    0.49556004    0.41002012    -0.06380000
opls_145-4    C    0.63301993    0.36942003    0.23674978    0.20190000
opls_145-5    C    0.62964998    0.30142003    0.24007962    -0.14410000
opls_145-6    C    0.66682013    0.26371998    0.16367017    -0.08040000
opls_700-7    C    0.70824016    0.29296014    0.08099038    0.07120000
opls_145-8    C    0.71205007    0.36119008    0.07923972    -0.08040000
opls_145-9    C    0.67482985    0.39882985    0.15562992    -0.14410000
opls_234-10    C    0.91080992    0.02526981    0.31895013    0.50220000
opls_145-11    C    0.02429023    0.05800000    0.55616010    -0.08740000
opls_700-12    C    0.97936023    0.06015994    0.46409974    -0.06770000
opls_234-13    C    0.94845017    0.11484978    0.40597025    0.50040000
opls_700-14    C    0.95594020    0.00443996    0.41002012    -0.06380000
opls_145-15    C    0.86698007    0.13057997    0.23674978    0.20190000
opls_145-16    C    0.87035002    0.19857997    0.24007962    -0.14410000
opls_145-17    C    0.83317987    0.23628002    0.16367017    -0.08040000
opls_700-18    C    0.79175984    0.20703986    0.08099038    0.07120000
opls_145-19    C    0.78794993    0.13880992    0.07923972    -0.08040000
opls_145-20    C    0.82517015    0.10117015    0.15562992    -0.14410000
opls_234-21    C    0.58919008    0.47473019    0.31895013    0.50220000
opls_145-22    C    0.05800000    0.47570977    0.55616010    -0.08740000
opls_700-23    C    0.06015994    0.52063977    0.46409974    -0.06770000
opls_234-24    C    0.11484978    0.55154983    0.40597025    0.50040000
opls_700-25    C    0.00443996    0.54405980    0.41002012    -0.06380000
opls_145-26    C    0.13057997    0.63301993    0.23674978    0.20190000
opls_145-27    C    0.19857997    0.62964998    0.24007962    -0.14410000
opls_145-28    C    0.23628002    0.66682013    0.16367017    -0.08040000
opls_700-29    C    0.20703986    0.70824016    0.08099038    0.07120000
opls_145-30    C    0.13880992    0.71205007    0.07923972    -0.08040000
opls_145-31    C    0.10117015    0.67482985    0.15562992    -0.14410000
opls_234-32    C    0.47473019    0.91080992    0.31895013    0.50220000
opls_145-33    C    0.44200000    0.02429023    0.55616010    -0.08740000
opls_700-34    C    0.43984006    0.97936023    0.46409974    -0.06770000
opls_234-35    C    0.38515022    0.94845017    0.40597025    0.50040000
opls_700-36    C    0.49556004    0.95594020    0.41002012    -0.06380000
opls_145-37    C    0.36942003    0.86698007    0.23674978    0.20190000
opls_145-38    C    0.30142003    0.87035002    0.24007962    -0.14410000
opls_145-39    C    0.26371998    0.83317987    0.16367017    -0.08040000
opls_700-40    C    0.29296014    0.79175984    0.08099038    0.07120000
opls_145-41    C    0.36119008    0.78794993    0.07923972    -0.08040000
opls_145-42    C    0.39882985    0.82517015    0.15562992    -0.14410000
opls_234-43    C    0.02526981    0.58919008    0.31895013    0.50220000
opls_145-44    C    0.52429023    0.55800000    0.44383990    -0.08740000
opls_700-45    C    0.47936023    0.56015994    0.53590026    -0.06770000
opls_234-46    C    0.44845017    0.61484978    0.59402975    0.50040000
opls_700-47    C    0.45594020    0.50443996    0.58997988    -0.06380000
opls_145-48    C    0.36698007    0.63057997    0.76325022    0.20190000
opls_145-49    C    0.37035002    0.69857997    0.75992038    -0.14410000
opls_145-50    C    0.33317987    0.73628002    0.83632983    -0.08040000
opls_700-51    C    0.29175984    0.70703986    0.91900962    0.07120000
opls_145-52    C    0.28794993    0.63880992    0.92076028    -0.08040000
opls_145-53    C    0.32517015    0.60117015    0.84437008    -0.14410000
opls_234-54    C    0.08919008    0.97473019    0.68104987    0.50220000
opls_145-55    C    0.97570977    0.94200000    0.44383990    -0.08740000
opls_700-56    C    0.02063977    0.93984006    0.53590026    -0.06770000
opls_234-57    C    0.05154983    0.88515022    0.59402975    0.50040000
opls_700-58    C    0.04405980    0.99556004    0.58997988    -0.06380000
opls_145-59    C    0.13301993    0.86942003    0.76325022    0.20190000
opls_145-60    C    0.12964998    0.80142003    0.75992038    -0.14410000
opls_145-61    C    0.16682013    0.76371998    0.83632983    -0.08040000
opls_700-62    C    0.20824016    0.79296014    0.91900962    0.07120000
opls_145-63    C    0.21205007    0.86119008    0.92076028    -0.08040000
opls_145-64    C    0.17482985    0.89882985    0.84437008    -0.14410000
opls_234-65    C    0.41080992    0.52526981    0.68104987    0.50220000
opls_145-66    C    0.94200000    0.52429023    0.44383990    -0.08740000
opls_700-67    C    0.93984006    0.47936023    0.53590026    -0.06770000
opls_234-68    C    0.88515022    0.44845017    0.59402975    0.50040000
opls_700-69    C    0.99556004    0.45594020    0.58997988    -0.06380000
opls_145-70    C    0.86942003    0.36698007    0.76325022    0.20190000
opls_145-71    C    0.80142003    0.37035002    0.75992038    -0.14410000
opls_145-72    C    0.76371998    0.33317987    0.83632983    -0.08040000
opls_700-73    C    0.79296014    0.29175984    0.91900962    0.07120000
opls_145-74    C    0.86119008    0.28794993    0.92076028    -0.08040000
opls_145-75    C    0.89882985    0.32517015    0.84437008    -0.14410000
opls_234-76    C    0.52526981    0.08919008    0.68104987    0.50220000
opls_145-77    C    0.55800000    0.97570977    0.44383990    -0.08740000
opls_700-78    C    0.56015994    0.02063977    0.53590026    -0.06770000
opls_234-79    C    0.61484978    0.05154983    0.59402975    0.50040000
opls_700-80    C    0.50443996    0.04405980    0.58997988    -0.06380000
opls_145-81    C    0.63057997    0.13301993    0.76325022    0.20190000
opls_145-82    C    0.69857997    0.12964998    0.75992038    -0.14410000
opls_145-83    C    0.73628002    0.16682013    0.83632983    -0.08040000
opls_700-84    C    0.70703986    0.20824016    0.91900962    0.07120000
opls_145-85    C    0.63880992    0.21205007    0.92076028    -0.08040000
opls_145-86    C    0.60117015    0.17482985    0.84437008    -0.14410000
opls_234-87    C    0.97473019    0.41080992    0.68104987    0.50220000
opls_701-88    C    0.75000000    0.25000000    0.00000000    0.01120000
opls_701-89    C    0.25000000    0.75000000    0.00000000    0.01120000
opls_236-90    O    0.95703014    0.17187992    0.43027997    -0.34700000
opls_236-91    O    0.88152990    0.98856004    0.25392038    -0.32550000
opls_236-92    O    0.54296986    0.32812008    0.43027997    -0.34700000
opls_236-93    O    0.61847010    0.51143996    0.25392038    -0.32550000
opls_236-94    O    0.32812008    0.95703014    0.43027997    -0.34700000
opls_236-95    O    0.51143996    0.88152990    0.25392038    -0.32550000
opls_236-96    O    0.17187992    0.54296986    0.43027997    -0.34700000
opls_236-97    O    0.98856004    0.61847010    0.25392038    -0.32550000
opls_236-98    O    0.04296986    0.82812008    0.56972003    -0.34700000
opls_236-99    O    0.11847010    0.01143996    0.74607962    -0.32550000
opls_236-100    O    0.45703014    0.67187992    0.56972003    -0.34700000
opls_236-101    O    0.38152990    0.48856004    0.74607962    -0.32550000
opls_236-102    O    0.67187992    0.04296986    0.56972003    -0.34700000
opls_236-103    O    0.48856004    0.11847010    0.74607962    -0.32550000
opls_236-104    O    0.82812008    0.45703014    0.56972003    -0.34700000
opls_236-105    O    0.01143996    0.38152990    0.74607962    -0.32550000
opls_542-106    N    0.59415994    0.40819981    0.31546019    -0.17410000
opls_542-107    N    0.90584006    0.09180019    0.31546019    -0.17410000
opls_542-108    N    0.09180019    0.59415994    0.31546019    -0.17410000
opls_542-109    N    0.40819981    0.90584006    0.31546019    -0.17410000
opls_542-110    N    0.40584006    0.59180019    0.68453981    -0.17410000
opls_542-111    N    0.09415994    0.90819981    0.68453981    -0.17410000
opls_542-112    N    0.90819981    0.40584006    0.68453981    -0.17410000
opls_542-113    N    0.59180019    0.09415994    0.68453981    -0.17410000
opls_146-114    H    0.45787020    0.39496014    0.59793963    0.04720000
opls_146-115    H    0.59629995    0.27631016    0.30567979    0.04720000
opls_146-116    H    0.66387020    0.20843024    0.16769029    0.04720000
opls_146-117    H    0.74589985    0.38654983    0.01478040    0.04720000
opls_146-118    H    0.67870005    0.45405980    0.15157043    0.04720000
opls_146-119    H    0.04212980    0.10503986    0.59793963    0.04720000
opls_146-120    H    0.90370005    0.22368984    0.30567979    0.04720000
opls_146-121    H    0.83612980    0.29156976    0.16769029    0.04720000
opls_146-122    H    0.75410015    0.11345017    0.01478040    0.04720000
opls_146-123    H    0.82129995    0.04594020    0.15157043    0.04720000
opls_146-124    H    0.10503986    0.45787020    0.59793963    0.04720000
opls_146-125    H    0.22368984    0.59629995    0.30567979    0.04720000
opls_146-126    H    0.29156976    0.66387020    0.16769029    0.04720000
opls_146-127    H    0.11345017    0.74589985    0.01478040    0.04720000
opls_146-128    H    0.04594020    0.67870005    0.15157043    0.04720000
opls_146-129    H    0.39496014    0.04212980    0.59793963    0.04720000
opls_146-130    H    0.27631016    0.90370005    0.30567979    0.04720000
opls_146-131    H    0.20843024    0.83612980    0.16769029    0.04720000
opls_146-132    H    0.38654983    0.75410015    0.01478040    0.04720000
opls_146-133    H    0.45405980    0.82129995    0.15157043    0.04720000
opls_146-134    H    0.54212980    0.60503986    0.40206037    0.04720000
opls_146-135    H    0.40370005    0.72368984    0.69432021    0.04720000
opls_146-136    H    0.33612980    0.79156976    0.83230971    0.04720000
opls_146-137    H    0.25410015    0.61345017    0.98521960    0.04720000
opls_146-138    H    0.32129995    0.54594020    0.84842957    0.04720000
opls_146-139    H    0.95787020    0.89496014    0.40206037    0.04720000
opls_146-140    H    0.09629995    0.77631016    0.69432021    0.04720000
opls_146-141    H    0.16387020    0.70843024    0.83230971    0.04720000
opls_146-142    H    0.24589985    0.88654983    0.98521960    0.04720000
opls_146-143    H    0.17870005    0.95405980    0.84842957    0.04720000
opls_146-144    H    0.89496014    0.54212980    0.40206037    0.04720000
opls_146-145    H    0.77631016    0.40370005    0.69432021    0.04720000
opls_146-146    H    0.70843024    0.33612980    0.83230971    0.04720000
opls_146-147    H    0.88654983    0.25410015    0.98521960    0.04720000
opls_146-148    H    0.95405980    0.32129995    0.84842957    0.04720000
opls_146-149    H    0.60503986    0.95787020    0.40206037    0.04720000
opls_146-150    H    0.72368984    0.09629995    0.69432021    0.04720000
opls_146-151    H    0.79156976    0.16387020    0.83230971    0.04720000
opls_146-152    H    0.61345017    0.24589985    0.98521960    0.04720000
opls_146-153    H    0.54594020    0.17870005    0.84842957    0.04720000
