#======================================================================
# Crystal Data Generated By AuToFF
#----------------------------------------------------------------------

data_AuToFF_phase_1

_cell_length_a                         30.0100
_cell_length_b                         30.0100
_cell_length_c                         3.8200
_cell_angle_alpha                      90.00
_cell_angle_beta                       90.00
_cell_angle_gamma                      120.00
_symmetry_space_group_name_H-M_alt     'P 1'
_symmetry_space_group_IT_number        1

loop_
_space_group_symop_operation_xyz
   'x, y, z'

loop_
   _atom_site_label
   _atom_site_type_symbol
   _atom_site_fract_x
   _atom_site_fract_y
   _atom_site_fract_z
   _atom_site_charge
opls_700-0    C    0.37060011    0.65150011    0.61469895    0.05900000
opls_700-1    C    0.62939989    0.34849989    0.44469895    0.05900000
opls_145-2    C    0.61449998    0.29630019    0.44680105    -0.14030000
opls_166-3    C    0.51379996    0.55169988    0.08690052    0.21070000
opls_145-4    C    0.54999991    0.53569991    0.12690052    -0.23150000
opls_700-5    C    0.53670022    0.48430015    0.06980105    -0.19500000
opls_166-6    C    0.48620004    0.44830012    0.97250000    0.21110000
opls_145-7    C    0.45000009    0.46430009    0.93250000    -0.23070000
opls_700-8    C    0.46330026    0.51560019    0.98959948    -0.19500000
opls_234-9    C    0.42400013    0.53099992    0.94340052    0.45420000
opls_234-10    C    0.57599987    0.46900008    0.11600000    0.45450000
opls_182-11    C    0.57250017    0.64190005    0.01990052    0.05420000
opls_142-12    C    0.40990009    0.63620004    0.63319895    0.02700000
opls_142-13    C    0.59009991    0.36379996    0.42619895    0.02890000
opls_135-14    C    0.57189995    0.69169993    0.06330105    -0.44140000
opls_182-15    C    0.42749983    0.35809995    0.03950000    0.07290000
opls_135-16    C    0.42810005    0.30830007    0.99609948    -0.44210000
opls_145-17    C    0.38550022    0.70370020    0.61259948    -0.14030000
opls_700-18    C    0.34849998    0.71909993    0.61469895    0.05900000
opls_700-19    C    0.65150002    0.28090007    0.44469895    0.05900000
opls_145-20    C    0.70370007    0.31819987    0.44680105    -0.14030000
opls_166-21    C    0.44829990    0.96209996    0.08690052    0.21070000
opls_145-22    C    0.46429997    0.01430005    0.12690052    -0.23160000
opls_700-23    C    0.51569992    0.05240017    0.06980105    -0.19500000
opls_166-24    C    0.55170010    0.03790004    0.97250000    0.21110000
opls_145-25    C    0.53570003    0.98569995    0.93250000    -0.23070000
opls_700-26    C    0.48440028    0.94770026    0.98959948    -0.19500000
opls_234-27    C    0.46899979    0.89299992    0.94340052    0.45410000
opls_234-28    C    0.53099987    0.10700008    0.11600000    0.45440000
opls_182-29    C    0.35810018    0.93060022    0.01990052    0.05420000
opls_142-30    C    0.36380013    0.77370022    0.63319895    0.02700000
opls_142-31    C    0.63620007    0.22630016    0.42619895    0.02890000
opls_135-32    C    0.30829998    0.88020010    0.06330105    -0.44140000
opls_182-33    C    0.64190002    0.06940016    0.03950000    0.07290000
opls_135-34    C    0.69170002    0.11979990    0.99609948    -0.44210000
opls_145-35    C    0.29629993    0.68180013    0.61259948    -0.14030000
opls_700-36    C    0.28089992    0.62939996    0.61469895    0.05900000
opls_700-37    C    0.71910008    0.37060004    0.44469895    0.05900000
opls_145-38    C    0.68179996    0.38549995    0.44680105    -0.14030000
opls_166-39    C    0.03790014    0.48620015    0.08690052    0.21070000
opls_145-40    C    0.98570012    0.45000004    0.12690052    -0.23160000
opls_700-41    C    0.94760005    0.46330007    0.06980105    -0.19500000
opls_166-42    C    0.96210005    0.51380023    0.97250000    0.21110000
opls_145-43    C    0.01429988    0.54999996    0.93250000    -0.23070000
opls_700-44    C    0.05229998    0.53669993    0.98959948    -0.19500000
opls_234-45    C    0.10700008    0.57600016    0.94340052    0.45410000
opls_234-46    C    0.89300011    0.42400023    0.11600000    0.45450000
opls_182-47    C    0.06940017    0.42750011    0.01990052    0.05420000
opls_142-48    C    0.22629998    0.59010013    0.63319895    0.02700000
opls_142-49    C    0.77370002    0.40989987    0.42619895    0.02890000
opls_135-50    C    0.11980007    0.42809997    0.06330105    -0.44130000
opls_182-51    C    0.93059983    0.57249989    0.03950000    0.07290000
opls_135-52    C    0.88019993    0.57190003    0.99609948    -0.44200000
opls_145-53    C    0.31820004    0.61450005    0.61259948    -0.14030000
opls_238-54    N    0.43559983    0.57639994    0.78800000    -0.25940000
opls_750-55    N    0.39860001    0.59149993    0.75400000    -0.17430000
opls_238-56    N    0.56440017    0.42360006    0.27140052    -0.25940000
opls_750-57    N    0.60139999    0.40850007    0.30540052    -0.17430000
opls_238-58    N    0.42360001    0.85920001    0.78800000    -0.25940000
opls_750-59    N    0.40850000    0.80709997    0.75400000    -0.17430000
opls_238-60    N    0.57639999    0.14079999    0.27140052    -0.25940000
opls_750-61    N    0.59150000    0.19290003    0.30540052    -0.17430000
opls_238-62    N    0.14080016    0.56440005    0.78800000    -0.25930000
opls_750-63    N    0.19289999    0.60140011    0.75400000    -0.17430000
opls_238-64    N    0.85919984    0.43559995    0.27140052    -0.25920000
opls_750-65    N    0.80710001    0.39859989    0.30540052    -0.17430000
opls_236-66    O    0.38009996    0.50140019    0.03490052    -0.36930000
opls_236-67    O    0.61990023    0.49860020    0.02450000    -0.36940000
opls_179-68    O    0.52629992    0.60210001    0.16830105    -0.19740000
opls_179-69    O    0.47380005    0.39789999    0.89109948    -0.21610000
opls_236-70    O    0.49860004    0.87870026    0.03490052    -0.36940000
opls_236-71    O    0.50140015    0.12130013    0.02450000    -0.36940000
opls_179-72    O    0.39790003    0.92419992    0.16830105    -0.19740000
opls_179-73    O    0.60210001    0.07590012    0.89109948    -0.21610000
opls_236-74    O    0.12129986    0.61989994    0.03490052    -0.36940000
opls_236-75    O    0.87870014    0.38010006    0.02450000    -0.36940000
opls_179-76    O    0.07580005    0.47370007    0.16830105    -0.19740000
opls_179-77    O    0.92409995    0.52619989    0.89109948    -0.21620000
opls_185-78    H    0.60699999    0.64520024    0.15180105    0.06050000
opls_185-79    H    0.57469991    0.63450012    0.73819895    0.05780000
opls_140-80    H    0.57090007    0.69980015    0.34250000    0.12640000
opls_140-81    H    0.53670001    0.68779988    0.94130105    0.13010000
opls_140-82    H    0.60649987    0.72410004    0.94290052    0.17410000
opls_185-83    H    0.39300021    0.35480015    0.90759948    0.06050000
opls_185-84    H    0.42530009    0.36549988    0.32119895    0.05780000
opls_140-85    H    0.46329996    0.31210008    0.11809948    0.17410000
opls_140-86    H    0.39350013    0.27589996    0.11650000    0.17410000
opls_140-87    H    0.42909993    0.30019985    0.71690052    0.12640000
opls_146-88    H    0.57409989    0.26750001    0.44280105    0.12160000
opls_146-89    H    0.58840005    0.56270013    0.21409948    0.11740000
opls_146-90    H    0.41160011    0.43720021    0.84530105    0.11620000
opls_146-91    H    0.42590011    0.73249999    0.61659948    0.12160000
opls_910-92    H    0.47240009    0.59930002    0.68709948    0.27220000
opls_910-93    H    0.52759991    0.40069998    0.37240052    0.27210000
opls_144-94    H    0.44909988    0.66349999    0.56259948    0.11750000
opls_144-95    H    0.55080015    0.33650001    0.49680105    0.12460000
opls_185-96    H    0.35480015    0.96180022    0.15180105    0.06050000
opls_185-97    H    0.36549982    0.94019990    0.73819895    0.05780000
opls_140-98    H    0.30020024    0.87110024    0.34250000    0.12640000
opls_140-99    H    0.31220011    0.84890005    0.94130105    0.13000000
opls_140-100    H    0.27590021    0.88240022    0.94290052    0.17410000
opls_185-101    H    0.64520005    0.03820016    0.90759948    0.06050000
opls_185-102    H    0.63450018    0.05980010    0.32119895    0.05780000
opls_140-103    H    0.68789989    0.15119999    0.11809948    0.17420000
opls_140-104    H    0.72409998    0.11760016    0.11650000    0.17410000
opls_140-105    H    0.69979996    0.12890014    0.71690052    0.12640000
opls_146-106    H    0.73250001    0.30660015    0.44280105    0.12160000
opls_146-107    H    0.43729989    0.02570007    0.21409948    0.11740000
opls_146-108    H    0.56280012    0.97439997    0.84530105    0.11620000
opls_146-109    H    0.26750019    0.69340024    0.61659948    0.12160000
opls_910-110    H    0.40069990    0.87309990    0.68709948    0.27220000
opls_910-111    H    0.59930010    0.12690010    0.37240052    0.27210000
opls_144-112    H    0.33650013    0.78560006    0.56259948    0.11750000
opls_144-113    H    0.66349983    0.21429990    0.49680105    0.12460000
opls_185-114    H    0.03820006    0.39299992    0.15180105    0.06050000
opls_185-115    H    0.05979994    0.42529999    0.73819895    0.05780000
opls_140-116    H    0.12889988    0.42910000    0.34250000    0.12640000
opls_140-117    H    0.15109988    0.46330007    0.94130105    0.13000000
opls_140-118    H    0.11760011    0.39350012    0.94290052    0.17410000
opls_185-119    H    0.96179994    0.60700008    0.90759948    0.06060000
opls_185-120    H    0.94020006    0.57470001    0.32119895    0.05780000
opls_140-121    H    0.84879982    0.53669993    0.11809948    0.17410000
opls_140-122    H    0.88239989    0.60649988    0.11650000    0.17410000
opls_140-123    H    0.87110012    0.57090000    0.71690052    0.12640000
opls_146-124    H    0.69339977    0.42589985    0.44280105    0.12160000
opls_146-125    H    0.97429992    0.41160018    0.21409948    0.11740000
opls_146-126    H    0.02559997    0.58840020    0.84530105    0.11620000
opls_146-127    H    0.30660023    0.57410015    0.61659948    0.12170000
opls_910-128    H    0.12690001    0.52760008    0.68709948    0.27220000
opls_910-129    H    0.87309999    0.47239992    0.37240052    0.27210000
opls_144-130    H    0.21439999    0.55089994    0.56259948    0.11740000
opls_144-131    H    0.78570002    0.44920010    0.49680105    0.12310000
