#======================================================================
# Crystal Data Generated By AuToFF
#----------------------------------------------------------------------

data_AuToFF_phase_1

_cell_length_a                         22.7850
_cell_length_b                         22.7850
_cell_length_c                         6.6900
_cell_angle_alpha                      90.00
_cell_angle_beta                       90.00
_cell_angle_gamma                      120.00
_symmetry_space_group_name_H-M_alt     'P 1'
_symmetry_space_group_IT_number        1

loop_
_space_group_symop_operation_xyz
   'x, y, z'

loop_
   _atom_site_label
   _atom_site_type_symbol
   _atom_site_fract_x
   _atom_site_fract_y
   _atom_site_fract_z
   _atom_site_charge
opls_280-0    C    0.75284994    0.06370997    0.00853064    0.37260000
opls_145-1    C    0.80052014    0.03730009    0.02166966    -0.14180000
opls_280-2    C    0.87146004    0.08580005    0.07820927    0.37040000
opls_280-3    C    0.85332004    0.18445003    0.99643946    0.33100000
opls_145-4    C    0.77882018    0.13790017    0.01282063    -0.10650000
opls_142-5    C    0.73393029    0.16010022    0.02663976    0.05250000
opls_916-6    C    0.70739993    0.25535021    0.04911958    0.17890000
opls_700-7    C    0.73303987    0.32497989    0.00943049    -0.22670000
opls_145-8    C    0.68743022    0.34888019    0.98549028    -0.19190000
opls_916-9    C    0.61713988    0.30629995    0.00962930    0.17770000
opls_700-10    C    0.59162017    0.23685017    0.05310015    -0.20680000
opls_145-11    C    0.63715017    0.21275020    0.07317937    -0.19260000
opls_142-12    C    0.58986984    0.40123979    0.02491031    0.05250000
opls_470-13    C    0.51832967    0.18767975    0.08215994    0.60810000
opls_470-14    C    0.80684972    0.37373983    0.98531988    0.60830000
opls_280-15    C    0.44660018    0.47196006    0.07049028    0.37150000
opls_145-16    C    0.42073981    0.39808001    0.05233034    -0.11170000
opls_280-17    C    0.47009996    0.37398004    0.07120927    0.37530000
opls_145-18    C    0.54396983    0.42189973    0.04707025    -0.10730000
opls_280-19    C    0.56828983    0.49567995    0.05457997    0.38130000
opls_145-20    C    0.51964989    0.52110008    0.04246936    -0.10900000
opls_142-21    C    0.53969013    0.58713009    0.01191031    0.05140000
opls_916-22    C    0.63517013    0.70790006    0.94649028    0.19910000
opls_700-23    C    0.70656031    0.75219018    0.95098057    -0.10640000
opls_145-24    C    0.73182008    0.82229015    0.93553961    -0.19240000
opls_916-25    C    0.68899982    0.85006986    0.93385052    0.18380000
opls_700-26    C    0.61806991    0.80604985    0.93869955    -0.19160000
opls_145-27    C    0.59245988    0.73591998    0.93827055    -0.19780000
opls_142-28    C    0.78190986    0.97153006    0.99227055    0.05210000
opls_470-29    C    0.56888020    0.83084006    0.94591928    0.60810000
opls_470-30    C    0.75667975    0.72812974    0.97092975    0.61430000
opls_142-31    C    0.35444001    0.35224978    0.02510015    0.05210000
opls_142-32    C    0.96861023    0.20143024    0.99743049    0.04600000
opls_916-33    C    0.09157975    0.22941975    0.99162033    0.19770000
opls_700-34    C    0.13807994    0.20723997    0.94279073    -0.14360000
opls_145-35    C    0.20750012    0.25490982    0.93462930    -0.19180000
opls_916-36    C    0.23276983    0.32354976    0.98044993    0.17410000
opls_700-37    C    0.18662020    0.34599002    0.02782063    -0.22670000
opls_145-38    C    0.11708981    0.29847981    0.03479970    -0.20540000
opls_470-39    C    0.20823992    0.41785004    0.07475934    0.60830000
opls_470-40    C    0.11666020    0.13524008    0.89597010    0.61170000
opls_145-41    C    0.90131012    0.15875016    0.02691031    -0.13650000
opls_280-42    C    0.75284994    0.06370997    0.50853064    0.37260000
opls_145-43    C    0.80052014    0.03730009    0.52166966    -0.14180000
opls_280-44    C    0.87146004    0.08580005    0.57820927    0.37040000
opls_280-45    C    0.85332004    0.18445003    0.49644993    0.33100000
opls_145-46    C    0.77882018    0.13790017    0.51282063    -0.10650000
opls_142-47    C    0.73393029    0.16010022    0.52663976    0.05250000
opls_916-48    C    0.70739993    0.25535021    0.54911958    0.17890000
opls_700-49    C    0.73303987    0.32497989    0.50943049    -0.22670000
opls_145-50    C    0.68743022    0.34888019    0.48549028    -0.19190000
opls_916-51    C    0.61713988    0.30629995    0.50962930    0.17770000
opls_700-52    C    0.59162017    0.23685017    0.55310015    -0.20680000
opls_145-53    C    0.63715017    0.21275020    0.57317937    -0.19260000
opls_142-54    C    0.58986984    0.40123979    0.52491031    0.05250000
opls_470-55    C    0.51832967    0.18767975    0.58215994    0.60810000
opls_470-56    C    0.80684972    0.37373983    0.48531988    0.60830000
opls_280-57    C    0.44660018    0.47196006    0.57049028    0.37120000
opls_145-58    C    0.42073981    0.39808001    0.55233034    -0.11170000
opls_280-59    C    0.47009996    0.37398004    0.57120927    0.37530000
opls_145-60    C    0.54396983    0.42189973    0.54707025    -0.10730000
opls_280-61    C    0.56828983    0.49567995    0.55457997    0.38130000
opls_145-62    C    0.51964989    0.52110008    0.54246936    -0.10900000
opls_142-63    C    0.53969013    0.58713009    0.51191031    0.05140000
opls_916-64    C    0.63517013    0.70790006    0.44649925    0.19910000
opls_700-65    C    0.70656031    0.75219018    0.45098954    -0.10640000
opls_145-66    C    0.73182008    0.82229015    0.43555007    -0.19240000
opls_916-67    C    0.68899982    0.85006986    0.43385949    0.18380000
opls_700-68    C    0.61806991    0.80604985    0.43871001    -0.19160000
opls_145-69    C    0.59245988    0.73591998    0.43827055    -0.19780000
opls_142-70    C    0.78190986    0.97153006    0.49227952    0.05210000
opls_470-71    C    0.56888020    0.83084006    0.44592975    0.60810000
opls_470-72    C    0.75667975    0.72812974    0.47092975    0.61430000
opls_142-73    C    0.35444001    0.35224978    0.52511061    0.05210000
opls_142-74    C    0.96861023    0.20143024    0.49743049    0.04600000
opls_916-75    C    0.09157975    0.22941975    0.49162930    0.19770000
opls_700-76    C    0.13807994    0.20723997    0.44279073    -0.14360000
opls_145-77    C    0.20750012    0.25490982    0.43463976    -0.19180000
opls_916-78    C    0.23276983    0.32354976    0.48044993    0.17410000
opls_700-79    C    0.18662020    0.34599002    0.52782063    -0.22670000
opls_145-80    C    0.11708981    0.29847981    0.53481016    -0.20530000
opls_470-81    C    0.20823992    0.41785004    0.57476981    0.60830000
opls_470-82    C    0.11666020    0.13524008    0.39597010    0.61170000
opls_145-83    C    0.90131012    0.15875016    0.52691928    -0.13650000
opls_281-84    O    0.69185991    0.02463006    0.01001943    -0.36670000
opls_281-85    O    0.87519999    0.24336991    0.94753064    -0.36760000
opls_281-86    O    0.90408996    0.06537019    0.16911958    -0.33540000
opls_281-87    O    0.40824012    0.49253993    0.11637967    -0.36660000
opls_281-88    O    0.62858985    0.53543995    0.07863976    -0.36550000
opls_281-89    O    0.44975028    0.31495019    0.11527055    -0.36670000
opls_268-90    O    0.83553999    0.44149999    0.04311958    -0.46690000
opls_268-91    O    0.49417983    0.11851985    0.05617040    -0.47000000
opls_269-92    O    0.84377020    0.35522002    0.91205979    -0.43530000
opls_269-93    O    0.47913020    0.20667998    0.13246936    -0.42010000
opls_268-94    O    0.16120007    0.43998978    0.06375934    -0.47010000
opls_268-95    O    0.15634018    0.10685021    0.95026009    -0.46670000
opls_269-96    O    0.26618988    0.45757002    0.12592975    -0.42130000
opls_269-97    O    0.06413998    0.09976997    0.80598057    -0.43500000
opls_268-98    O    0.50180993    0.78822991    0.88698954    -0.47010000
opls_268-99    O    0.82094011    0.76907004    0.05369955    -0.46680000
opls_269-100    O    0.58583001    0.88735982    0.00860987    -0.41760000
opls_269-101    O    0.74321968    0.67233974    0.91156054    -0.40070000
opls_281-102    O    0.69185991    0.02463006    0.51001943    -0.36670000
opls_281-103    O    0.87519999    0.24336991    0.44753064    -0.36770000
opls_281-104    O    0.90408996    0.06537019    0.66911958    -0.33540000
opls_281-105    O    0.40824012    0.49253993    0.61639013    -0.36670000
opls_281-106    O    0.62858985    0.53543995    0.57865022    -0.36550000
opls_281-107    O    0.44975028    0.31495019    0.61527055    -0.36660000
opls_268-108    O    0.83553999    0.44149999    0.54311958    -0.46690000
opls_268-109    O    0.49417983    0.11851985    0.55617040    -0.47000000
opls_269-110    O    0.84377020    0.35522002    0.41207025    -0.43530000
opls_269-111    O    0.47913020    0.20667998    0.63246936    -0.42010000
opls_268-112    O    0.16120007    0.43998978    0.56375934    -0.47000000
opls_268-113    O    0.15634018    0.10685021    0.45027055    -0.46670000
opls_269-114    O    0.26618988    0.45757002    0.62592975    -0.42130000
opls_269-115    O    0.06413998    0.09976997    0.30598057    -0.43510000
opls_268-116    O    0.50180993    0.78822991    0.38700000    -0.47010000
opls_268-117    O    0.82094011    0.76907004    0.55369955    -0.46690000
opls_269-118    O    0.58583001    0.88735982    0.50860987    -0.41780000
opls_269-119    O    0.74321968    0.67233974    0.41156054    -0.40060000
opls_238-120    N    0.75262998    0.22882986    0.07449925    -0.32030000
opls_238-121    N    0.57187986    0.33254005    0.97969955    -0.32030000
opls_238-122    N    0.60632996    0.63535993    0.94079970    -0.32090000
opls_238-123    N    0.71707027    0.92210016    0.91246039    -0.32030000
opls_238-124    N    0.01975994    0.18191005    0.00873991    -0.32030000
opls_238-125    N    0.30454016    0.37036010    0.96927952    -0.32090000
opls_238-126    N    0.75262998    0.22882986    0.57450075    -0.32030000
opls_238-127    N    0.57187986    0.33254005    0.47969955    -0.32030000
opls_238-128    N    0.60632996    0.63535993    0.44079970    -0.32090000
opls_238-129    N    0.71707027    0.92210016    0.41246936    -0.32030000
opls_238-130    N    0.01975994    0.18191005    0.50873991    -0.32030000
opls_238-131    N    0.30454016    0.37036010    0.46928999    -0.32080000
opls_144-132    H    0.68083006    0.12347009    0.00955007    0.10660000
opls_910-133    H    0.79853992    0.25934010    0.14679970    0.28660000
opls_146-134    H    0.70711003    0.40056020    0.93723019    0.12450000
opls_146-135    H    0.61734021    0.16067998    0.11772048    0.12840000
opls_910-136    H    0.52649998    0.30191021    0.90502990    0.28660000
opls_144-137    H    0.64294017    0.43896000    0.03276981    0.10590000
opls_144-138    H    0.50261998    0.60297004    0.02955007    0.10690000
opls_910-139    H    0.62969978    0.61640987    0.84891031    0.31030000
opls_146-140    H    0.78556005    0.85537991    0.91569058    0.11170000
opls_146-141    H    0.53833983    0.70321993    0.92911958    0.12480000
opls_910-142    H    0.69132022    0.93827002    0.81920927    0.29020000
opls_144-143    H    0.81851007    0.95597999    0.02563976    0.12250000
opls_144-144    H    0.33863011    0.29907984    0.03731988    0.12930000
opls_144-145    H    0.98457004    0.25273016    0.95168012    0.12320000
opls_910-146    H    0.00489992    0.13114985    0.02182063    0.28480000
opls_146-147    H    0.24202999    0.23868979    0.88259043    0.12410000
opls_146-148    H    0.08295982    0.31551981    0.08391928    0.13150000
opls_910-149    H    0.32031024    0.41678023    0.89985052    0.29330000
opls_270-150    H    0.80370015    0.45174001    0.12143946    0.32190000
opls_270-151    H    0.44366994    0.08988014    0.08136024    0.32460000
opls_270-152    H    0.18146009    0.48957982    0.10030045    0.32460000
opls_270-153    H    0.19587994    0.13682022    0.04014051    0.32190000
opls_270-154    H    0.47297998    0.81044009    0.90007025    0.32460000
opls_270-155    H    0.82684001    0.81085008    0.12472048    0.32840000
opls_144-156    H    0.68083006    0.12347009    0.50955007    0.10660000
opls_910-157    H    0.79853992    0.25934010    0.64679970    0.28660000
opls_146-158    H    0.70711003    0.40056020    0.43723019    0.12450000
opls_146-159    H    0.61734021    0.16067998    0.61772048    0.12840000
opls_910-160    H    0.52649998    0.30191021    0.40502990    0.28660000
opls_144-161    H    0.64294017    0.43896000    0.53276981    0.10590000
opls_144-162    H    0.50261998    0.60297004    0.52955007    0.10690000
opls_910-163    H    0.62969978    0.61640987    0.34891928    0.31030000
opls_146-164    H    0.78556005    0.85537991    0.41569058    0.11170000
opls_146-165    H    0.53833983    0.70321993    0.42911958    0.12480000
opls_910-166    H    0.69132022    0.93827002    0.31920927    0.29020000
opls_144-167    H    0.81851007    0.95597999    0.52565022    0.12250000
opls_144-168    H    0.33863011    0.29907984    0.53731988    0.12930000
opls_144-169    H    0.98457004    0.25273016    0.45169058    0.12320000
opls_910-170    H    0.00489992    0.13114985    0.52182063    0.28480000
opls_146-171    H    0.24202999    0.23868979    0.38259043    0.12970000
opls_146-172    H    0.08295982    0.31551981    0.58391928    0.13150000
opls_910-173    H    0.32031024    0.41678023    0.39985949    0.29330000
opls_270-174    H    0.80370015    0.45174001    0.62143946    0.32200000
opls_270-175    H    0.44366994    0.08988014    0.58137070    0.32460000
opls_270-176    H    0.18146009    0.48957982    0.60030045    0.32460000
opls_270-177    H    0.19587994    0.13682022    0.54014051    0.32190000
opls_270-178    H    0.47297998    0.81044009    0.40008072    0.32460000
opls_270-179    H    0.82684001    0.81085008    0.62472048    0.32830000
