#======================================================================
# Crystal Data Generated By AuToFF
#----------------------------------------------------------------------

data_AuToFF_phase_1

_cell_length_a                         29.1861
_cell_length_b                         29.1861
_cell_length_c                         7.1390
_cell_angle_alpha                      90.00
_cell_angle_beta                       90.00
_cell_angle_gamma                      120.00
_symmetry_space_group_name_H-M_alt     'P 1'
_symmetry_space_group_IT_number        1

loop_
_space_group_symop_operation_xyz
   'x, y, z'

loop_
   _atom_site_label
   _atom_site_type_symbol
   _atom_site_fract_x
   _atom_site_fract_y
   _atom_site_fract_z
   _atom_site_charge
opls_700-0    C    0.82312002    0.81597015    0.11022972    0.12790000
opls_523-1    C    0.77279014    0.81136023    0.12781062    -0.13340000
opls_522-2    C    0.72813992    0.76316016    0.17374982    -0.19080000
opls_521-3    C    0.73089010    0.71689000    0.21253957    0.11520000
opls_522-4    C    0.78172018    0.72176025    0.19352010    -0.05010000
opls_523-5    C    0.82565998    0.76928022    0.13943970    -0.21280000
opls_142-6    C    0.67840999    0.46810994    0.32484942    -0.09830000
opls_700-7    C    0.64472028    0.42060026    0.40784003    0.00830000
opls_423-8    C    0.59636998    0.41061011    0.49965962    0.23400000
opls_700-9    C    0.65635003    0.37600006    0.41101975    0.06870000
opls_145-10    C    0.61441999    0.32319997    0.41223981    -0.15420000
opls_700-11    C    0.48280985    0.15908988    0.30894943    0.11090000
opls_523-12    C    0.47809991    0.10854015    0.30891021    -0.12930000
opls_522-13    C    0.42883994    0.06258017    0.29016949    -0.19640000
opls_521-14    C    0.38081020    0.06371010    0.27683989    0.11460000
opls_522-15    C    0.38604022    0.11496010    0.27201009    -0.04450000
opls_523-16    C    0.43545015    0.16066015    0.28437036    -0.20600000
opls_142-17    C    0.13622991    0.00981014    0.07071999    -0.09690000
opls_700-18    C    0.08346997    0.97299008    0.08560022    0.00640000
opls_423-19    C    0.06590999    0.91870003    0.13729934    0.23390000
opls_700-20    C    0.04111000    0.98730016    0.06705001    0.06830000
opls_145-21    C    0.98759015    0.94711009    0.06623056    -0.15240000
opls_905-22    C    0.32970022    0.96597035    0.30299061    -0.29280000
opls_700-23    C    0.18403003    0.00714989    0.11022972    0.12790000
opls_523-24    C    0.18864003    0.96143006    0.12781062    -0.13340000
opls_522-25    C    0.23683988    0.96498008    0.17374982    -0.19080000
opls_521-26    C    0.28310981    0.01399990    0.21253957    0.11520000
opls_522-27    C    0.27823990    0.05995988    0.19352010    -0.05010000
opls_523-28    C    0.23072007    0.05638019    0.13943970    -0.21280000
opls_142-29    C    0.53189009    0.21029993    0.32484942    -0.09830000
opls_700-30    C    0.57940004    0.22412021    0.40784003    0.00830000
opls_423-31    C    0.58938996    0.18575995    0.49965962    0.23400000
opls_700-32    C    0.62399986    0.28035006    0.41101975    0.06870000
opls_145-33    C    0.67679989    0.29122010    0.41223981    -0.15420000
opls_700-34    C    0.84091007    0.32372022    0.30894943    0.11090000
opls_523-35    C    0.89145986    0.36955994    0.30891021    -0.12920000
opls_522-36    C    0.93741986    0.36625996    0.29016949    -0.19640000
opls_521-37    C    0.93629013    0.31710008    0.27683989    0.11460000
opls_522-38    C    0.88503991    0.27107996    0.27201009    -0.04450000
opls_523-39    C    0.83934021    0.27479022    0.28437036    -0.20600000
opls_142-40    C    0.99018998    0.12642003    0.07071999    -0.09700000
opls_700-41    C    0.02701010    0.11047994    0.08560022    0.00640000
opls_423-42    C    0.08130020    0.14721019    0.13729934    0.23390000
opls_700-43    C    0.01270003    0.05381015    0.06705001    0.06830000
opls_145-44    C    0.05289016    0.04048006    0.06623056    -0.15240000
opls_905-45    C    0.03402984    0.36372988    0.30299061    -0.29290000
opls_700-46    C    0.99284995    0.17687995    0.11022972    0.12790000
opls_523-47    C    0.03857002    0.22721011    0.12781062    -0.13340000
opls_522-48    C    0.03502005    0.27186015    0.17374982    -0.19080000
opls_521-49    C    0.98600009    0.26911010    0.21253957    0.11520000
opls_522-50    C    0.94003991    0.21827986    0.19352010    -0.05010000
opls_523-51    C    0.94362015    0.17433998    0.13943970    -0.21290000
opls_142-52    C    0.78969992    0.32159013    0.32484942    -0.09830000
opls_700-53    C    0.77587988    0.35527993    0.40784003    0.00830000
opls_423-54    C    0.81424006    0.40362994    0.49965962    0.23400000
opls_700-55    C    0.71965010    0.34364988    0.41101975    0.06870000
opls_145-56    C    0.70878012    0.38557994    0.41223981    -0.15420000
opls_700-57    C    0.67628008    0.51718989    0.30894943    0.11090000
opls_523-58    C    0.63043988    0.52189991    0.30891021    -0.12930000
opls_522-59    C    0.63374005    0.57116028    0.29016949    -0.19640000
opls_521-60    C    0.68290021    0.61919022    0.27683989    0.11460000
opls_522-61    C    0.72891987    0.61395994    0.27201009    -0.04450000
opls_523-62    C    0.72521018    0.56455003    0.28437036    -0.20600000
opls_142-63    C    0.87357996    0.86377023    0.07071999    -0.09700000
opls_700-64    C    0.88951993    0.91652998    0.08560022    0.00640000
opls_423-65    C    0.85279002    0.93409018    0.13729934    0.23390000
opls_700-66    C    0.94619017    0.95889009    0.06705001    0.06830000
opls_145-67    C    0.95952003    0.01240984    0.06623056    -0.15240000
opls_905-68    C    0.63627014    0.67030017    0.30299061    -0.29290000
opls_700-69    C    0.81597000    0.82312005    0.61022972    0.12790000
opls_523-70    C    0.81136011    0.77279029    0.62781062    -0.13340000
opls_522-71    C    0.76316010    0.72814024    0.67374982    -0.19080000
opls_521-72    C    0.71689018    0.73089029    0.71253957    0.11520000
opls_522-73    C    0.72176005    0.78172014    0.69352010    -0.05010000
opls_523-74    C    0.76928017    0.82566002    0.63943970    -0.21290000
opls_142-75    C    0.46810999    0.67841026    0.82484942    -0.09830000
opls_700-76    C    0.42059995    0.64472007    0.90784003    0.00830000
opls_423-77    C    0.41061012    0.59637006    0.99965962    0.23400000
opls_700-78    C    0.37600022    0.65635012    0.91101975    0.06870000
opls_145-79    C    0.32320018    0.61442006    0.91223981    -0.15420000
opls_700-80    C    0.15909018    0.48281011    0.80894943    0.11090000
opls_523-81    C    0.10853997    0.47810009    0.80891021    -0.12930000
opls_522-82    C    0.06257997    0.42884012    0.79016949    -0.19640000
opls_521-83    C    0.06371019    0.38081018    0.77683989    0.11460000
opls_522-84    C    0.11495993    0.38604006    0.77201009    -0.04450000
opls_523-85    C    0.16066015    0.43544997    0.78437036    -0.20600000
opls_142-86    C    0.00980993    0.13623016    0.57071999    -0.09700000
opls_700-87    C    0.97298996    0.08347002    0.58560022    0.00640000
opls_423-88    C    0.91869984    0.06590982    0.63729934    0.23390000
opls_700-89    C    0.98730008    0.04110991    0.56705001    0.06830000
opls_145-90    C    0.94711018    0.98759016    0.56623056    -0.15240000
opls_905-91    C    0.96597017    0.32970023    0.80299061    -0.29290000
opls_700-92    C    0.00714987    0.18402985    0.61022972    0.12800000
opls_523-93    C    0.96143011    0.18864017    0.62781062    -0.13340000
opls_522-94    C    0.96497995    0.23684023    0.67374982    -0.19080000
opls_521-95    C    0.01400010    0.28311000    0.71253957    0.11520000
opls_522-96    C    0.05996013    0.27824014    0.69352010    -0.05010000
opls_523-97    C    0.05637996    0.23072017    0.63943970    -0.21290000
opls_142-98    C    0.21030005    0.53189006    0.82484942    -0.09830000
opls_700-99    C    0.22412022    0.57940014    0.90784003    0.00830000
opls_423-100    C    0.18576007    0.58939029    0.99965962    0.23400000
opls_700-101    C    0.28034997    0.62399994    0.91101975    0.06870000
opls_145-102    C    0.29122002    0.67680003    0.91223981    -0.15410000
opls_700-103    C    0.32371997    0.84091012    0.80894943    0.11090000
opls_523-104    C    0.36955996    0.89146024    0.80891021    -0.12930000
opls_522-105    C    0.36625998    0.93742023    0.79016949    -0.19630000
opls_521-106    C    0.31710030    0.93629030    0.77683989    0.11460000
opls_522-107    C    0.27108032    0.88504030    0.77201009    -0.04450000
opls_523-108    C    0.27479019    0.83934024    0.78437036    -0.20600000
opls_142-109    C    0.12641997    0.99019026    0.57071999    -0.09700000
opls_700-110    C    0.11047989    0.02700992    0.58560022    0.00640000
opls_423-111    C    0.14720996    0.08129997    0.63729934    0.23400000
opls_700-112    C    0.05380984    0.01269984    0.56705001    0.06830000
opls_145-113    C    0.04048006    0.05288991    0.56623056    -0.15240000
opls_905-114    C    0.36373007    0.03403004    0.80299061    -0.29290000
opls_700-115    C    0.17688013    0.99285011    0.61022972    0.12790000
opls_523-116    C    0.22720998    0.03856994    0.62781062    -0.13340000
opls_522-117    C    0.27185980    0.03501992    0.67374982    -0.19080000
opls_521-118    C    0.26910991    0.98600010    0.71253957    0.11520000
opls_522-119    C    0.21828002    0.94004012    0.69352010    -0.05010000
opls_523-120    C    0.17434008    0.94362021    0.63943970    -0.21290000
opls_142-121    C    0.32159016    0.78970007    0.82484942    -0.09830000
opls_700-122    C    0.35528003    0.77588019    0.90784003    0.00830000
opls_423-123    C    0.40363001    0.81424005    0.99965962    0.23400000
opls_700-124    C    0.34364981    0.71964994    0.91101975    0.06870000
opls_145-125    C    0.38558000    0.70878030    0.91223981    -0.15420000
opls_700-126    C    0.51719004    0.67628017    0.80894943    0.11090000
opls_523-127    C    0.52189992    0.63044006    0.80891021    -0.12920000
opls_522-128    C    0.57115991    0.63374004    0.79016949    -0.19640000
opls_521-129    C    0.61919005    0.68289992    0.77683989    0.11460000
opls_522-130    C    0.61395995    0.72892004    0.77201009    -0.04450000
opls_523-131    C    0.56455019    0.72521018    0.78437036    -0.20590000
opls_142-132    C    0.86376995    0.87357997    0.57071999    -0.09690000
opls_700-133    C    0.91653015    0.88952006    0.58560022    0.00640000
opls_423-134    C    0.93409021    0.85279021    0.63729934    0.23390000
opls_700-135    C    0.95889007    0.94619024    0.56705001    0.06830000
opls_145-136    C    0.01241030    0.95952033    0.56623056    -0.15240000
opls_905-137    C    0.67029996    0.63627012    0.80299061    -0.29280000
opls_753-138    N    0.05124011    0.87564004    0.18424009    -0.30630000
opls_753-139    N    0.55820986    0.40170004    0.57877994    -0.30630000
opls_900-140    N    0.68520001    0.66892020    0.26743942    -0.07810000
opls_753-141    N    0.12435991    0.17560008    0.18424009    -0.30620000
opls_753-142    N    0.59830014    0.15650996    0.57877994    -0.30630000
opls_900-143    N    0.33108000    0.01627993    0.26743942    -0.07810000
opls_753-144    N    0.82440018    0.94876028    0.18424009    -0.30630000
opls_753-145    N    0.84349001    0.44179001    0.57877994    -0.30630000
opls_900-146    N    0.98372000    0.31479987    0.26743942    -0.07800000
opls_753-147    N    0.87564010    0.05124011    0.68424009    -0.30620000
opls_753-148    N    0.40170000    0.55820999    0.07877994    -0.30630000
opls_900-149    N    0.66892013    0.68520013    0.76743942    -0.07810000
opls_753-150    N    0.17560007    0.12435996    0.68424009    -0.30630000
opls_753-151    N    0.15650982    0.59829996    0.07877994    -0.30630000
opls_900-152    N    0.01628001    0.33108020    0.76743942    -0.07810000
opls_753-153    N    0.94876003    0.82440032    0.68424009    -0.30630000
opls_753-154    N    0.44179018    0.84349004    0.07877994    -0.30630000
opls_900-155    N    0.31480006    0.98372007    0.76743942    -0.07810000
opls_526-156    H    0.76727011    0.84494004    0.10107998    0.11170000
opls_525-157    H    0.69058025    0.76250025    0.17832049    0.11200000
opls_526-158    H    0.86371016    0.77103011    0.12712985    0.10720000
opls_144-159    H    0.71452022    0.47164018    0.26508054    0.09450000
opls_146-160    H    0.57391990    0.31573000    0.41510996    0.10740000
opls_140-161    H    0.06278004    0.35502000    0.36732035    0.12950000
opls_526-162    H    0.51298984    0.10427997    0.31788066    0.11060000
opls_525-163    H    0.42872017    0.02529010    0.28458047    0.11140000
opls_526-164    H    0.43731006    0.19887996    0.28021992    0.10640000
opls_144-165    H    0.14541992    0.04987993    0.03518000    0.11100000
opls_146-166    H    0.97856988    0.90616002    0.07007984    0.11000000
opls_140-167    H    0.02848999    0.38916003    0.40134052    0.11750000
opls_140-168    H    0.05191023    0.38682025    0.17475977    0.15170000
opls_526-169    H    0.15506002    0.92232997    0.10107998    0.11170000
opls_525-170    H    0.23750002    0.92808011    0.17832049    0.11200000
opls_526-171    H    0.22897008    0.09267998    0.12712985    0.10720000
opls_144-172    H    0.52836006    0.24287998    0.26508054    0.09450000
opls_146-173    H    0.68427000    0.25819021    0.41510996    0.10740000
opls_140-174    H    0.64497985    0.70775996    0.36732035    0.12950000
opls_526-175    H    0.89572001    0.40870988    0.31788066    0.11060000
opls_525-176    H    0.97471009    0.40343014    0.28458047    0.11150000
opls_526-177    H    0.80112003    0.23842989    0.28021992    0.10650000
opls_144-178    H    0.95012010    0.09554002    0.03518000    0.11100000
opls_146-179    H    0.09384001    0.07241008    0.07007984    0.11020000
opls_140-180    H    0.61083989    0.63932995    0.40134052    0.11760000
opls_140-181    H    0.61317999    0.66509007    0.17475977    0.15170000
opls_526-182    H    0.07766986    0.23272999    0.10107998    0.11180000
opls_525-183    H    0.07191992    0.30942004    0.17832049    0.11200000
opls_526-184    H    0.90732011    0.13628990    0.12712985    0.10720000
opls_144-185    H    0.75712025    0.28548024    0.26508054    0.09450000
opls_146-186    H    0.74180995    0.42608018    0.41510996    0.10740000
opls_140-187    H    0.29224010    0.93722004    0.36732035    0.12950000
opls_526-188    H    0.59129015    0.48701016    0.31788066    0.11060000
opls_525-189    H    0.59656994    0.57128015    0.28458047    0.11140000
opls_526-190    H    0.76156991    0.56269015    0.28021992    0.10640000
opls_144-191    H    0.90445998    0.85458005    0.03518000    0.11110000
opls_146-192    H    0.92759011    0.02142990    0.07007984    0.11020000
opls_140-193    H    0.36067012    0.97151002    0.40134052    0.11750000
opls_140-194    H    0.33490997    0.94809008    0.17475977    0.15170000
opls_526-195    H    0.84493987    0.76727001    0.60107998    0.11170000
opls_525-196    H    0.76249988    0.69057996    0.67832049    0.11200000
opls_526-197    H    0.77103020    0.86371010    0.62712985    0.10720000
opls_144-198    H    0.47164021    0.71452016    0.76508054    0.09450000
opls_146-199    H    0.31572997    0.57392022    0.91510996    0.10740000
opls_140-200    H    0.35502006    0.06277996    0.86732035    0.12950000
opls_526-201    H    0.10428020    0.51299024    0.81788066    0.11060000
opls_525-202    H    0.02528998    0.42872024    0.78458047    0.11150000
opls_526-203    H    0.19887996    0.43731024    0.78021992    0.10640000
opls_144-204    H    0.04987993    0.14541995    0.53518000    0.11100000
opls_146-205    H    0.90616021    0.97857010    0.57007984    0.11020000
opls_140-206    H    0.38916011    0.02848998    0.90134052    0.11750000
opls_140-207    H    0.38681989    0.05190992    0.67475977    0.15180000
opls_526-208    H    0.92233007    0.15505996    0.60107998    0.11200000
opls_525-209    H    0.92808020    0.23750015    0.67832049    0.11200000
opls_526-210    H    0.09268004    0.22896989    0.62712985    0.10710000
opls_144-211    H    0.24288024    0.52836022    0.76508054    0.09450000
opls_146-212    H    0.25818990    0.68427000    0.91510996    0.10740000
opls_140-213    H    0.70776004    0.64498000    0.86732035    0.12950000
opls_526-214    H    0.40870987    0.89572003    0.81788066    0.11060000
opls_525-215    H    0.40343027    0.97471030    0.78458047    0.11140000
opls_526-216    H    0.23843010    0.80112004    0.78021992    0.10640000
opls_144-217    H    0.09553999    0.95012007    0.53518000    0.11110000
opls_146-218    H    0.07240986    0.09383998    0.57007984    0.11000000
opls_140-219    H    0.63932996    0.61083997    0.90134052    0.11750000
opls_140-220    H    0.66509018    0.61318014    0.67475977    0.15170000
opls_526-221    H    0.23273006    0.07767003    0.60107998    0.11170000
opls_525-222    H    0.30941991    0.07191989    0.67832049    0.11200000
opls_526-223    H    0.13629010    0.90732002    0.62712985    0.10720000
opls_144-224    H    0.28548009    0.75712002    0.76508054    0.09450000
opls_146-225    H    0.42607999    0.74181018    0.91510996    0.10740000
opls_140-226    H    0.93721989    0.29224004    0.86732035    0.12950000
opls_526-227    H    0.48701013    0.59129012    0.81788066    0.11060000
opls_525-228    H    0.57128015    0.59657025    0.78458047    0.11150000
opls_526-229    H    0.56269014    0.76157011    0.78021992    0.10640000
opls_144-230    H    0.85458008    0.90445998    0.53518000    0.11100000
opls_146-231    H    0.02143013    0.92759031    0.57007984    0.11020000
opls_140-232    H    0.97150993    0.36067005    0.90134052    0.11760000
opls_140-233    H    0.94808993    0.33490993    0.67475977    0.15170000
opls_202-234    S    0.79426010    0.66939021    0.25115002    0.07920000
opls_202-235    S    0.33060989    0.12486994    0.25115002    0.07920000
opls_202-236    S    0.87513001    0.20573985    0.25115002    0.07920000
opls_202-237    S    0.66939016    0.79426015    0.75115002    0.07920000
opls_202-238    S    0.12487009    0.33061019    0.75115002    0.07920000
opls_202-239    S    0.20573995    0.87513006    0.75115002    0.07920000
