#======================================================================
# Crystal Data Generated By AuToFF
#----------------------------------------------------------------------

data_AuToFF_phase_1

_cell_length_a                         25.6000
_cell_length_b                         25.6000
_cell_length_c                         4.6000
_cell_angle_alpha                      90.00
_cell_angle_beta                       90.00
_cell_angle_gamma                      90.00
_symmetry_space_group_name_H-M_alt     'P 1'
_symmetry_space_group_IT_number        1

loop_
_space_group_symop_operation_xyz
   'x, y, z'

loop_
   _atom_site_label
   _atom_site_type_symbol
   _atom_site_fract_x
   _atom_site_fract_y
   _atom_site_fract_z
   _atom_site_charge
opls_145-0    C    0.78260000    0.94360000    0.28050000    -0.15050000
opls_700-1    C    0.80740000    0.98050000    0.48890000    0.05130000
opls_145-2    C    0.77490000    0.01160000    0.69200000    -0.15380000
opls_145-3    C    0.72090000    0.00710000    0.68300000    -0.22450000
opls_145-4    C    0.69590000    0.97060000    0.47090000    0.15640000
opls_145-5    C    0.72860000    0.93830000    0.27480000    -0.21470000
opls_700-6    C    0.86550000    0.98650000    0.49440000    -0.16160000
opls_543-7    C    0.88660000    0.03740000    0.45350000    0.13540000
opls_543-8    C    0.93970000    0.10340000    0.46070000    0.13330000
opls_716-9    C    0.88830000    0.12450000    0.36950000    -0.20080000
opls_716-10    C    0.85520000    0.08330000    0.36430000    -0.19700000
opls_700-11    C    0.98490000    0.13470000    0.50740000    -0.16160000
opls_700-12    C    0.97900000    0.19280000    0.51220000    0.05030000
opls_145-13    C    0.01050000    0.22520000    0.31080000    -0.15360000
opls_145-14    C    0.00610000    0.27920000    0.32000000    -0.22670000
opls_145-15    C    0.96930000    0.30420000    0.53030000    0.15640000
opls_145-16    C    0.93670000    0.27150000    0.72410000    -0.20820000
opls_145-17    C    0.94190000    0.21760000    0.71870000    -0.15380000
opls_142-18    C    0.00260000    0.38710000    0.49790000    0.09470000
opls_700-19    C    0.00000000    0.44410000    0.49490000    -0.05850000
opls_166-20    C    0.95230000    0.47270000    0.49650000    0.19020000
opls_145-21    C    0.95270000    0.52720000    0.49290000    -0.25460000
opls_700-22    C    0.99960000    0.55620000    0.49520000    -0.05070000
opls_166-23    C    0.04720000    0.52760000    0.49440000    0.19000000
opls_145-24    C    0.04680000    0.47310000    0.49060000    -0.25430000
opls_142-25    C    0.99720000    0.61320000    0.49850000    0.09480000
opls_507-26    C    0.03620000    0.11450000    0.55020000    0.15690000
opls_507-27    C    0.10440000    0.05930000    0.54210000    0.17240000
opls_716-28    C    0.12380000    0.11010000    0.63220000    -0.20170000
opls_716-29    C    0.08220000    0.14380000    0.63750000    -0.20170000
opls_700-30    C    0.13460000    0.01340000    0.49260000    -0.16160000
opls_543-31    C    0.11350000    0.96250000    0.45120000    0.13790000
opls_543-32    C    0.06040000    0.89660000    0.45900000    0.13540000
opls_716-33    C    0.11180000    0.87540000    0.36710000    -0.20210000
opls_716-34    C    0.14490000    0.91660000    0.36140000    -0.19610000
opls_700-35    C    0.01520000    0.86530000    0.50600000    -0.16200000
opls_507-36    C    0.96390000    0.88530000    0.54860000    0.16920000
opls_507-37    C    0.89570000    0.94050000    0.54230000    0.16360000
opls_716-38    C    0.87630000    0.88970000    0.63040000    -0.23130000
opls_716-39    C    0.91790000    0.85590000    0.63440000    -0.20170000
opls_700-40    C    0.19270000    0.01950000    0.48650000    0.05030000
opls_145-41    C    0.21740000    0.05670000    0.28050000    -0.15380000
opls_145-42    C    0.27130000    0.06220000    0.27540000    -0.20990000
opls_145-43    C    0.30410000    0.02960000    0.46900000    0.15640000
opls_145-44    C    0.27920000    0.99250000    0.67810000    -0.22350000
opls_145-45    C    0.22520000    0.98800000    0.68710000    -0.15380000
opls_142-46    C    0.38690000    0.99650000    0.50100000    0.09470000
opls_700-47    C    0.44390000    0.99930000    0.50490000    -0.06970000
opls_145-48    C    0.47330000    0.95270000    0.50800000    -0.25440000
opls_166-49    C    0.52770000    0.95270000    0.50550000    0.19110000
opls_700-50    C    0.55590000    0.00050000    0.50700000    -0.06510000
opls_145-51    C    0.52660000    0.04720000    0.50990000    -0.25450000
opls_166-52    C    0.47210000    0.04720000    0.50510000    0.19000000
opls_142-53    C    0.61290000    0.00350000    0.50410000    0.09470000
opls_700-54    C    0.02120000    0.80720000    0.51110000    0.05130000
opls_145-55    C    0.99010000    0.77480000    0.30720000    -0.15380000
opls_145-56    C    0.99440000    0.72080000    0.31690000    -0.22300000
opls_145-57    C    0.03080000    0.69580000    0.53000000    0.15640000
opls_145-58    C    0.06320000    0.72850000    0.72560000    -0.21120000
opls_145-59    C    0.05800000    0.78250000    0.71980000    -0.15000000
opls_181-60    C    0.14331992    0.52331016    0.49493913    -0.22380000
opls_181-61    C    0.52393984    0.85646992    0.50233043    -0.22380000
opls_181-62    C    0.85618008    0.47700000    0.50248043    -0.22380000
opls_181-63    C    0.47576992    0.14328008    0.50361957    -0.22380000
opls_542-64    N    0.93690000    0.05120000    0.49930000    -0.33260000
opls_750-65    N    0.96220000    0.35690000    0.54260000    -0.30570000
opls_750-66    N    0.03770000    0.64310000    0.54260000    -0.25620000
opls_542-67    N    0.05220000    0.06470000    0.50860000    -0.34870000
opls_542-68    N    0.06330000    0.94870000    0.49760000    -0.33230000
opls_542-69    N    0.94790000    0.93520000    0.50860000    -0.33330000
opls_750-70    N    0.35670000    0.03680000    0.45740000    -0.23780000
opls_750-71    N    0.64330000    0.96330000    0.45890000    -0.26440000
opls_179-72    O    0.90300000    0.44710000    0.50100000    -0.24240000
opls_179-73    O    0.09650000    0.55320000    0.49580000    -0.24290000
opls_179-74    O    0.55360000    0.90350000    0.50260000    -0.24170000
opls_179-75    O    0.44620000    0.09630000    0.50190000    -0.23930000
opls_146-76    H    0.80508984    0.92215000    0.14121087    0.20230000
opls_146-77    H    0.79203984    0.03618008    0.83895000    0.20230000
opls_146-78    H    0.69905000    0.02801016    0.82781957    0.20230000
opls_146-79    H    0.71115000    0.91270000    0.13435000    0.20230000
opls_547-80    H    0.87901016    0.16226992    0.32116087    0.20230000
opls_547-81    H    0.81656016    0.08451016    0.31060000    0.20240000
opls_146-82    H    0.03525000    0.20803008    0.16483043    0.20230000
opls_146-83    H    0.02726992    0.30100000    0.17613043    0.20240000
opls_146-84    H    0.91091992    0.28896016    0.86350000    0.20230000
opls_146-85    H    0.92023008    0.19513984    0.85708913    0.20230000
opls_144-86    H    0.03928984    0.37153984    0.47395000    0.09820000
opls_146-87    H    0.91933008    0.54861992    0.49076087    0.20250000
opls_146-88    H    0.08018984    0.45171992    0.48676957    0.20250000
opls_144-89    H    0.96055000    0.62888984    0.47508913    0.09820000
opls_547-90    H    0.16148008    0.11968984    0.68101957    0.20230000
opls_547-91    H    0.08400000    0.18241016    0.69166087    0.20230000
opls_547-92    H    0.12103984    0.83761992    0.31893043    0.20250000
opls_547-93    H    0.18351016    0.91538984    0.30706087    0.20240000
opls_547-94    H    0.83861992    0.88008984    0.67891957    0.20230000
opls_547-95    H    0.91608984    0.81723008    0.68703913    0.20230000
opls_146-96    H    0.19486992    0.07833008    0.14233043    0.20230000
opls_146-97    H    0.28866992    0.08813008    0.13653043    0.20230000
opls_146-98    H    0.30101992    0.97126992    0.82158913    0.20230000
opls_146-99    H    0.20810000    0.96315000    0.83278913    0.20230000
opls_144-100    H    0.37151016    0.95971016    0.52328043    0.09850000
opls_146-101    H    0.45210000    0.91918984    0.50996957    0.20250000
opls_146-102    H    0.54778984    0.08071016    0.51326087    0.20250000
opls_144-103    H    0.62828008    0.04025000    0.52890000    0.09820000
opls_146-104    H    0.96565000    0.79200000    0.15976957    0.20240000
opls_146-105    H    0.97346992    0.69896992    0.17210000    0.20230000
opls_146-106    H    0.08875000    0.71101992    0.86621957    0.20230000
opls_146-107    H    0.07943984    0.80501016    0.85901087    0.20230000
opls_185-108    H    0.14746992    0.50011992    0.29680000    0.09550000
opls_185-109    H    0.14703008    0.49900000    0.68906087    0.07850000
opls_185-110    H    0.17570000    0.55101016    0.49833043    0.09150000
opls_185-111    H    0.55181992    0.82425000    0.50006957    0.09140000
opls_185-112    H    0.49995000    0.85261016    0.30696087    0.08830000
opls_185-113    H    0.50046992    0.85220000    0.69926957    0.07850000
opls_185-114    H    0.82380000    0.44931016    0.50745000    0.09170000
opls_185-115    H    0.85173008    0.50021992    0.30468043    0.09370000
opls_185-116    H    0.85278984    0.50130000    0.69686087    0.09380000
opls_185-117    H    0.50003008    0.14728008    0.30938043    0.08830000
opls_185-118    H    0.49895000    0.14748008    0.70166957    0.07850000
opls_185-119    H    0.44785000    0.17546992    0.50063913    0.09170000
opls_545-120    H    0.96525000    0.02820000    0.55585000    0.24250000
opls_545-121    H    0.03498984    0.97170000    0.55466957    0.24240000
