#======================================================================
# Crystal Data Generated By AuToFF
#----------------------------------------------------------------------

data_AuToFF_phase_1

_cell_length_a                         23.2030
_cell_length_b                         23.2030
_cell_length_c                         3.1630
_cell_angle_alpha                      90.00
_cell_angle_beta                       90.00
_cell_angle_gamma                      120.00
_symmetry_space_group_name_H-M_alt     'P 1'
_symmetry_space_group_IT_number        1

loop_
_space_group_symop_operation_xyz
   'x, y, z'

loop_
   _atom_site_label
   _atom_site_type_symbol
   _atom_site_fract_x
   _atom_site_fract_y
   _atom_site_fract_z
   _atom_site_charge
opls_423-0    C    0.38763006    0.38763008    0.00000000    0.30150000
opls_260-1    C    0.44463997    0.44464002    0.00000000    -0.08300000
opls_423-2    C    0.61236995    0.00000000    0.00000000    0.30150000
opls_260-3    C    0.55536008    0.00000000    0.00000000    -0.08300000
opls_423-4    C    0.99999998    0.61236992    0.00000000    0.30150000
opls_260-5    C    0.99999995    0.55535998    0.00000000    -0.08300000
opls_147-6    C    0.66664977    0.27694993    0.00000000    -0.00660000
opls_145-7    C    0.55515995    0.33535977    0.00000000    -0.20500000
opls_166-8    C    0.55483001    0.39012978    0.00000000    0.12360000
opls_166-9    C    0.49993973    0.44437975    0.00000000    0.12000000
opls_147-10    C    0.33335023    0.72305007    0.00000000    -0.00660000
opls_145-11    C    0.44483980    0.66463973    0.00000000    -0.20500000
opls_166-12    C    0.44516974    0.60986972    0.00000000    0.12360000
opls_166-13    C    0.50006002    0.55561975    0.00000000    0.29420000
opls_147-14    C    0.72304971    0.38969981    0.00000000    -0.00660000
opls_145-15    C    0.66463998    0.21980015    0.00000000    -0.20500000
opls_166-16    C    0.60987025    0.16470020    0.00000000    0.12360000
opls_166-17    C    0.55561983    0.05555979    0.00000000    0.12000000
opls_147-18    C    0.27695004    0.61029969    0.00000000    -0.00660000
opls_145-19    C    0.33536002    0.78019985    0.00000000    -0.20500000
opls_166-20    C    0.39012975    0.83529980    0.00000000    0.12360000
opls_166-21    C    0.44437992    0.94443972    0.00000000    0.29420000
opls_147-22    C    0.61029984    0.33334976    0.00000000    -0.00660000
opls_145-23    C    0.78020007    0.44484008    0.00000000    -0.20500000
opls_166-24    C    0.83530018    0.44517002    0.00000000    0.12360000
opls_166-25    C    0.94444019    0.50005997    0.00000000    0.12000000
opls_147-26    C    0.38969991    0.66664975    0.00000000    -0.00640000
opls_145-27    C    0.21979993    0.55515992    0.00000000    -0.20500000
opls_166-28    C    0.16469982    0.55482998    0.00000000    0.12360000
opls_166-29    C    0.05555981    0.49994003    0.00000000    0.29420000
opls_147-30    C    0.27694984    0.66664975    0.00000000    -0.00640000
opls_145-31    C    0.33535999    0.55515992    0.00000000    -0.20500000
opls_166-32    C    0.39013016    0.55482998    0.00000000    0.12360000
opls_166-33    C    0.44438022    0.49994003    0.00000000    0.12000000
opls_147-34    C    0.72304992    0.33334976    0.00000000    -0.00660000
opls_145-35    C    0.66464001    0.44484008    0.00000000    -0.20500000
opls_166-36    C    0.60986984    0.44517002    0.00000000    0.12360000
opls_166-37    C    0.55561978    0.50005997    0.00000000    0.29420000
opls_147-38    C    0.38969984    0.72305007    0.00000000    -0.00660000
opls_145-39    C    0.21979993    0.66463973    0.00000000    -0.20500000
opls_166-40    C    0.16469998    0.60986972    0.00000000    0.12360000
opls_166-41    C    0.05555974    0.55561975    0.00000000    0.12000000
opls_147-42    C    0.61030016    0.27694993    0.00000000    -0.00660000
opls_145-43    C    0.78019982    0.33535977    0.00000000    -0.20500000
opls_166-44    C    0.83529977    0.39012978    0.00000000    0.12360000
opls_166-45    C    0.94444001    0.44437975    0.00000000    0.29420000
opls_147-46    C    0.33334965    0.61029969    0.00000000    -0.00660000
opls_145-47    C    0.44483983    0.78019985    0.00000000    -0.20510000
opls_166-48    C    0.44517005    0.83529980    0.00000000    0.12360000
opls_166-49    C    0.50005979    0.94443972    0.00000000    0.11990000
opls_147-50    C    0.66665010    0.38969981    0.00000000    -0.00660000
opls_145-51    C    0.55516017    0.21980015    0.00000000    -0.20500000
opls_166-52    C    0.55482995    0.16470020    0.00000000    0.12360000
opls_166-53    C    0.49993996    0.05555979    0.00000000    0.29420000
opls_520-54    N    0.55536003    0.55535998    0.00000000    -0.28760000
opls_262-55    N    0.34189983    0.34189990    0.00000000    -0.26960000
opls_520-56    N    0.44463992    0.00000000    0.00000000    -0.28760000
opls_262-57    N    0.65809981    0.00000000    0.00000000    -0.26980000
opls_520-58    N    0.00000005    0.44464002    0.00000000    -0.28760000
opls_262-59    N    0.99999993    0.65810010    0.00000000    -0.26960000
opls_180-60    O    0.50150991    0.61181006    0.00000000    -0.30570000
opls_180-61    O    0.49849009    0.38818994    0.00000000    -0.26740000
opls_180-62    O    0.38819012    0.88970006    0.00000000    -0.30570000
opls_180-63    O    0.61180988    0.11029994    0.00000000    -0.26740000
opls_180-64    O    0.11029997    0.49848988    0.00000000    -0.30560000
opls_180-65    O    0.88970003    0.50151012    0.00000000    -0.26740000
opls_180-66    O    0.61181010    0.50151012    0.00000000    -0.30570000
opls_180-67    O    0.38818990    0.49848988    0.00000000    -0.26740000
opls_180-68    O    0.88969985    0.38818994    0.00000000    -0.30560000
opls_180-69    O    0.11030015    0.61181006    0.00000000    -0.26740000
opls_180-70    O    0.49849006    0.11029994    0.00000000    -0.30560000
opls_180-71    O    0.50150994    0.88970006    0.00000000    -0.26740000
opls_146-72    H    0.78468014    0.48933011    0.00000000    0.25210000
opls_146-73    H    0.21531986    0.51066989    0.00000000    0.25210000
opls_146-74    H    0.51066992    0.29535010    0.00000000    0.25210000
opls_146-75    H    0.48933008    0.70464990    0.00000000    0.25210000
opls_146-76    H    0.70464994    0.21531980    0.00000000    0.25210000
opls_146-77    H    0.29534981    0.78467970    0.00000000    0.25210000
opls_146-78    H    0.48932990    0.78467970    0.00000000    0.25210000
opls_146-79    H    0.51066985    0.21531980    0.00000000    0.25210000
opls_146-80    H    0.29535003    0.51066989    0.00000000    0.25210000
opls_146-81    H    0.70464997    0.48933011    0.00000000    0.25210000
opls_146-82    H    0.21531982    0.70464990    0.00000000    0.25210000
opls_146-83    H    0.78468018    0.29535010    0.00000000    0.25210000
