#======================================================================
# Crystal Data Generated By AuToFF
#----------------------------------------------------------------------

data_AuToFF_phase_1

_cell_length_a                         26.9800
_cell_length_b                         26.9800
_cell_length_c                         3.3380
_cell_angle_alpha                      90.00
_cell_angle_beta                       90.00
_cell_angle_gamma                      90.00
_symmetry_space_group_name_H-M_alt     'P 1'
_symmetry_space_group_IT_number        1

loop_
_space_group_symop_operation_xyz
   'x, y, z'

loop_
   _atom_site_label
   _atom_site_type_symbol
   _atom_site_fract_x
   _atom_site_fract_y
   _atom_site_fract_z
   _atom_site_charge
opls_700-0    C    0.02745997    0.50000000    0.50000000    -0.00410000
opls_145-1    C    0.13128984    0.50000000    0.50000000    -0.26940000
opls_700-2    C    0.97254003    0.50000000    0.50000000    -0.00410000
opls_145-3    C    0.86871016    0.50000000    0.50000000    -0.26940000
opls_700-4    C    0.50000000    0.02745997    0.50000000    -0.00410000
opls_145-5    C    0.50000000    0.13128984    0.50000000    -0.26940000
opls_700-6    C    0.50000000    0.97254003    0.50000000    -0.00410000
opls_145-7    C    0.50000000    0.86871016    0.50000000    -0.26940000
opls_145-8    C    0.02745997    0.41085990    0.50000000    -0.13360000
opls_700-9    C    0.05371016    0.45542995    0.50000000    0.08330000
opls_145-10    C    0.10567013    0.45542995    0.50000000    -0.17530000
opls_166-11    C    0.26500000    0.47500000    0.50000000    0.15390000
opls_145-12    C    0.30900000    0.45000000    0.50000000    -0.23600000
opls_716-13    C    0.35500000    0.47500000    0.50000000    -0.02640000
opls_543-14    C    0.40100000    0.46200000    0.50000000    0.27090000
opls_145-15    C    0.97254003    0.58914010    0.50000000    -0.13360000
opls_700-16    C    0.94628984    0.54457005    0.50000000    0.08330000
opls_145-17    C    0.89432987    0.54457005    0.50000000    -0.17530000
opls_166-18    C    0.73500000    0.52500000    0.50000000    0.15390000
opls_145-19    C    0.69100000    0.55000000    0.50000000    -0.23600000
opls_716-20    C    0.64500000    0.52500000    0.50000000    -0.02640000
opls_543-21    C    0.59900000    0.53800000    0.50000000    0.27090000
opls_145-22    C    0.58914010    0.02745997    0.50000000    -0.13360000
opls_700-23    C    0.54457005    0.05371016    0.50000000    0.08330000
opls_145-24    C    0.54457005    0.10567013    0.50000000    -0.17530000
opls_166-25    C    0.52500000    0.26500000    0.50000000    0.15390000
opls_145-26    C    0.55000000    0.30900000    0.50000000    -0.23600000
opls_716-27    C    0.52500000    0.35500000    0.50000000    -0.02640000
opls_543-28    C    0.53800000    0.40100000    0.50000000    0.27090000
opls_145-29    C    0.41085990    0.97254003    0.50000000    -0.13360000
opls_700-30    C    0.45542995    0.94628984    0.50000000    0.08330000
opls_145-31    C    0.45542995    0.89432987    0.50000000    -0.17530000
opls_166-32    C    0.47500000    0.73500000    0.50000000    0.15390000
opls_145-33    C    0.45000000    0.69100000    0.50000000    -0.23600000
opls_716-34    C    0.47500000    0.64500000    0.50000000    -0.02640000
opls_543-35    C    0.46200000    0.59900000    0.50000000    0.27090000
opls_145-36    C    0.97254003    0.41085990    0.50000000    -0.13360000
opls_700-37    C    0.94628984    0.45542995    0.50000000    0.08330000
opls_145-38    C    0.89432987    0.45542995    0.50000000    -0.17530000
opls_166-39    C    0.73500000    0.47500000    0.50000000    0.15390000
opls_145-40    C    0.69100000    0.45000000    0.50000000    -0.23600000
opls_716-41    C    0.64500000    0.47500000    0.50000000    -0.02640000
opls_543-42    C    0.59900000    0.46200000    0.50000000    0.27090000
opls_145-43    C    0.02745997    0.58914010    0.50000000    -0.13360000
opls_700-44    C    0.05371016    0.54457005    0.50000000    0.08330000
opls_145-45    C    0.10567013    0.54457005    0.50000000    -0.17530000
opls_166-46    C    0.26500000    0.52500000    0.50000000    0.15390000
opls_145-47    C    0.30900000    0.55000000    0.50000000    -0.23600000
opls_716-48    C    0.35500000    0.52500000    0.50000000    -0.02640000
opls_543-49    C    0.40100000    0.53800000    0.50000000    0.27090000
opls_145-50    C    0.41085990    0.02745997    0.50000000    -0.13360000
opls_700-51    C    0.45542995    0.05371016    0.50000000    0.08330000
opls_145-52    C    0.45542995    0.10567013    0.50000000    -0.17530000
opls_166-53    C    0.47500000    0.26500000    0.50000000    0.15390000
opls_145-54    C    0.45000000    0.30900000    0.50000000    -0.23600000
opls_716-55    C    0.47500000    0.35500000    0.50000000    -0.02640000
opls_543-56    C    0.46200000    0.40100000    0.50000000    0.27090000
opls_145-57    C    0.58914010    0.97254003    0.50000000    -0.13360000
opls_700-58    C    0.54457005    0.94628984    0.50000000    0.08330000
opls_145-59    C    0.54457005    0.89432987    0.50000000    -0.17530000
opls_166-60    C    0.52500000    0.73500000    0.50000000    0.15390000
opls_145-61    C    0.55000000    0.69100000    0.50000000    -0.23590000
opls_716-62    C    0.52500000    0.64500000    0.50000000    -0.02640000
opls_543-63    C    0.53800000    0.59900000    0.50000000    0.27090000
MOF2_B_2-64    B    0.18281987    0.50000000    0.50000000    0.52470000
MOF2_B_2-65    B    0.81718013    0.50000000    0.50000000    0.52490000
MOF2_B_2-66    B    0.50000000    0.18281987    0.50000000    0.52470000
MOF2_B_2-67    B    0.50000000    0.81718013    0.50000000    0.52470000
opls_542-68    N    0.43000000    0.50000000    0.50000000    -0.44720000
opls_542-69    N    0.57000000    0.50000000    0.50000000    -0.44720000
opls_542-70    N    0.50000000    0.43000000    0.50000000    -0.44710000
opls_542-71    N    0.50000000    0.57000000    0.50000000    -0.44700000
opls_750-72    N    0.41600000    0.58400000    0.50000000    -0.39310000
opls_750-73    N    0.58400000    0.41600000    0.50000000    -0.39320000
opls_750-74    N    0.41600000    0.41600000    0.50000000    -0.39310000
opls_750-75    N    0.58400000    0.58400000    0.50000000    -0.39320000
opls_167-76    O    0.21202001    0.54659007    0.50000000    -0.38950000
opls_167-77    O    0.78797999    0.45340993    0.50000000    -0.38940000
opls_167-78    O    0.45340993    0.21202001    0.50000000    -0.38950000
opls_167-79    O    0.54659007    0.78797999    0.50000000    -0.38950000
opls_167-80    O    0.78797999    0.54659007    0.50000000    -0.38950000
opls_167-81    O    0.21202001    0.45340993    0.50000000    -0.38940000
opls_167-82    O    0.54659007    0.21202001    0.50000000    -0.38950000
opls_167-83    O    0.45340993    0.78797999    0.50000000    -0.38950000
opls_146-84    H    0.04561008    0.37754003    0.50000000    0.22280000
opls_146-85    H    0.12434989    0.42223017    0.50000000    0.22280000
opls_146-86    H    0.30801001    0.41216012    0.50000000    0.22280000
opls_146-87    H    0.95438992    0.62245997    0.50000000    0.22280000
opls_146-88    H    0.87565011    0.57776983    0.50000000    0.22290000
opls_146-89    H    0.69198999    0.58783988    0.50000000    0.22280000
opls_146-90    H    0.62245997    0.04561008    0.50000000    0.22280000
opls_146-91    H    0.57776983    0.12434989    0.50000000    0.22280000
opls_146-92    H    0.58783988    0.30801001    0.50000000    0.22280000
opls_146-93    H    0.37754003    0.95438992    0.50000000    0.22280000
opls_146-94    H    0.42223017    0.87565011    0.50000000    0.22280000
opls_146-95    H    0.41216012    0.69198999    0.50000000    0.22280000
opls_146-96    H    0.95438992    0.37754003    0.50000000    0.22280000
opls_146-97    H    0.87565011    0.42223017    0.50000000    0.22280000
opls_146-98    H    0.69198999    0.41216012    0.50000000    0.22280000
opls_146-99    H    0.04561008    0.62245997    0.50000000    0.22290000
opls_146-100    H    0.12434989    0.57776983    0.50000000    0.22280000
opls_146-101    H    0.30801001    0.58783988    0.50000000    0.22280000
opls_146-102    H    0.37754003    0.04561008    0.50000000    0.22290000
opls_146-103    H    0.42223017    0.12434989    0.50000000    0.22280000
opls_146-104    H    0.41216012    0.30801001    0.50000000    0.22280000
opls_146-105    H    0.62245997    0.95438992    0.50000000    0.22280000
opls_146-106    H    0.57776983    0.87565011    0.50000000    0.22290000
opls_146-107    H    0.58783988    0.69198999    0.50000000    0.22280000
Zn2+-108    Zn    0.50000000    0.50000000    0.50000000    0.62980000
