#======================================================================
# Crystal Data Generated By AuToFF
#----------------------------------------------------------------------

data_AuToFF_phase_1

_cell_length_a                         30.9184
_cell_length_b                         32.4798
_cell_length_c                         3.6721
_cell_angle_alpha                      90.00
_cell_angle_beta                       90.00
_cell_angle_gamma                      90.00
_symmetry_space_group_name_H-M_alt     'P 1'
_symmetry_space_group_IT_number        1

loop_
_space_group_symop_operation_xyz
   'x, y, z'

loop_
   _atom_site_label
   _atom_site_type_symbol
   _atom_site_fract_x
   _atom_site_fract_y
   _atom_site_fract_z
   _atom_site_charge
opls_147-0    C    0.46128001    0.96237015    0.97586939    -0.01080000
opls_145-1    C    0.42378001    0.01832985    0.98149016    -0.18350000
opls_145-2    C    0.46118007    0.07515995    0.97406116    -0.00550000
opls_700-3    C    0.42471991    0.10256990    0.91944936    0.07600000
opls_145-4    C    0.42702016    0.14314990    0.05467988    -0.12500000
opls_145-5    C    0.39144005    0.16608015    0.02904877    -0.18590000
opls_145-6    C    0.35352994    0.14724013    0.89973040    0.01140000
opls_145-7    C    0.35051005    0.10856994    0.78205931    -0.19240000
opls_145-8    C    0.38589998    0.08891003    0.75073119    -0.18520000
opls_142-9    C    0.31624987    0.16661987    0.87295008    0.10370000
opls_145-10    C    0.78253985    0.27446013    0.01005964    0.22490000
opls_145-11    C    0.79052991    0.23539000    0.90412026    -0.19130000
opls_145-12    C    0.24202999    0.78987986    0.89616024    -0.19050000
opls_147-13    C    0.53871999    0.03762985    0.97586939    -0.01080000
opls_145-14    C    0.57621999    0.98167015    0.98149016    -0.18350000
opls_145-15    C    0.53881993    0.92484005    0.97406116    -0.00550000
opls_700-16    C    0.57528009    0.89743010    0.91944936    0.07600000
opls_145-17    C    0.57297984    0.85685010    0.05467988    -0.12500000
opls_145-18    C    0.60855995    0.83391985    0.02904877    -0.18590000
opls_145-19    C    0.64647006    0.85275987    0.89973040    0.01140000
opls_145-20    C    0.64948995    0.89143006    0.78205931    -0.19240000
opls_145-21    C    0.61410002    0.91108997    0.75073119    -0.18520000
opls_142-22    C    0.68375013    0.83338013    0.87295008    0.10370000
opls_145-23    C    0.21746015    0.72553987    0.01005964    0.22490000
opls_145-24    C    0.20947009    0.76461000    0.90412026    -0.19130000
opls_145-25    C    0.75797001    0.21012014    0.89616024    -0.19050000
opls_147-26    C    0.03871999    0.46237015    0.02413061    -0.01080000
opls_145-27    C    0.07621999    0.51832985    0.01850984    -0.18350000
opls_145-28    C    0.03881993    0.57515995    0.02593884    -0.00550000
opls_700-29    C    0.07528009    0.60256990    0.08055064    0.07600000
opls_145-30    C    0.07297984    0.64314990    0.94532012    -0.12500000
opls_145-31    C    0.10855995    0.66608015    0.97095123    -0.18590000
opls_145-32    C    0.14647006    0.64724013    0.10026960    0.01140000
opls_145-33    C    0.14948995    0.60856994    0.21794069    -0.19240000
opls_145-34    C    0.11410002    0.58891003    0.24926881    -0.18520000
opls_142-35    C    0.18375013    0.66661987    0.12704992    0.10370000
opls_145-36    C    0.71746015    0.77446013    0.98994036    0.22490000
opls_145-37    C    0.70947009    0.73539000    0.09587974    -0.19130000
opls_145-38    C    0.25797001    0.28987986    0.10383976    -0.19050000
opls_147-39    C    0.96128001    0.53762985    0.02413061    -0.01080000
opls_145-40    C    0.92378001    0.48167015    0.01850984    -0.18350000
opls_145-41    C    0.96118007    0.42484005    0.02593884    -0.00550000
opls_700-42    C    0.92471991    0.39743010    0.08055064    0.07600000
opls_145-43    C    0.92702016    0.35685010    0.94532012    -0.12500000
opls_145-44    C    0.89144005    0.33391985    0.97095123    -0.18590000
opls_145-45    C    0.85352994    0.35275987    0.10026960    0.01140000
opls_145-46    C    0.85051005    0.39143006    0.21794069    -0.19240000
opls_145-47    C    0.88589998    0.41108997    0.24926881    -0.18520000
opls_142-48    C    0.81624987    0.33338013    0.12704992    0.10370000
opls_145-49    C    0.28253985    0.22553987    0.98994036    0.22490000
opls_145-50    C    0.29052991    0.26461000    0.09587974    -0.19130000
opls_145-51    C    0.74202999    0.71012014    0.10383976    -0.19050000
opls_147-52    C    0.03871999    0.53762985    0.02413061    -0.01080000
opls_145-53    C    0.07621999    0.48167015    0.01850984    -0.18350000
opls_145-54    C    0.03881993    0.42484005    0.02593884    -0.00550000
opls_700-55    C    0.07528009    0.39743010    0.08055064    0.07600000
opls_145-56    C    0.07297984    0.35685010    0.94532012    -0.12500000
opls_145-57    C    0.10855995    0.33391985    0.97095123    -0.18590000
opls_145-58    C    0.14647006    0.35275987    0.10026960    0.01140000
opls_145-59    C    0.14948995    0.39143006    0.21794069    -0.19240000
opls_145-60    C    0.11410002    0.41108997    0.24926881    -0.18520000
opls_142-61    C    0.18375013    0.33338013    0.12704992    0.10370000
opls_145-62    C    0.71746015    0.22553987    0.98994036    0.22490000
opls_145-63    C    0.70947009    0.26461000    0.09587974    -0.19130000
opls_145-64    C    0.25797001    0.71012014    0.10383976    -0.19050000
opls_147-65    C    0.96128001    0.46237015    0.02413061    -0.01080000
opls_145-66    C    0.92378001    0.51832985    0.01850984    -0.18350000
opls_145-67    C    0.96118007    0.57515995    0.02593884    -0.00550000
opls_700-68    C    0.92471991    0.60256990    0.08055064    0.07600000
opls_145-69    C    0.92702016    0.64314990    0.94532012    -0.12500000
opls_145-70    C    0.89144005    0.66608015    0.97095123    -0.18590000
opls_145-71    C    0.85352994    0.64724013    0.10026960    0.01140000
opls_145-72    C    0.85051005    0.60856994    0.21794069    -0.19240000
opls_145-73    C    0.88589998    0.58891003    0.24926881    -0.18520000
opls_142-74    C    0.81624987    0.66661987    0.12704992    0.10370000
opls_145-75    C    0.28253985    0.77446013    0.98994036    0.22490000
opls_145-76    C    0.29052991    0.73539000    0.09587974    -0.19130000
opls_145-77    C    0.74202999    0.28987986    0.10383976    -0.19040000
opls_147-78    C    0.46128001    0.03762985    0.97586939    -0.01080000
opls_145-79    C    0.42378001    0.98167015    0.98149016    -0.18350000
opls_145-80    C    0.46118007    0.92484005    0.97406116    -0.00550000
opls_700-81    C    0.42471991    0.89743010    0.91944936    0.07600000
opls_145-82    C    0.42702016    0.85685010    0.05467988    -0.12490000
opls_145-83    C    0.39144005    0.83391985    0.02904877    -0.18590000
opls_145-84    C    0.35352994    0.85275987    0.89973040    0.01140000
opls_145-85    C    0.35051005    0.89143006    0.78205931    -0.19240000
opls_145-86    C    0.38589998    0.91108997    0.75073119    -0.18520000
opls_142-87    C    0.31624987    0.83338013    0.87295008    0.10370000
opls_145-88    C    0.78253985    0.72553987    0.01005964    0.22490000
opls_145-89    C    0.79052991    0.76461000    0.90412026    -0.19130000
opls_145-90    C    0.24202999    0.21012014    0.89616024    -0.19050000
opls_147-91    C    0.53871999    0.96237015    0.97586939    -0.01080000
opls_145-92    C    0.57621999    0.01832985    0.98149016    -0.18350000
opls_145-93    C    0.53881993    0.07515995    0.97406116    -0.00550000
opls_700-94    C    0.57528009    0.10256990    0.91944936    0.07600000
opls_145-95    C    0.57297984    0.14314990    0.05467988    -0.12500000
opls_145-96    C    0.60855995    0.16608015    0.02904877    -0.18590000
opls_145-97    C    0.64647006    0.14724013    0.89973040    0.01140000
opls_145-98    C    0.64948995    0.10856994    0.78205931    -0.19240000
opls_145-99    C    0.61410002    0.08891003    0.75073119    -0.18520000
opls_142-100    C    0.68375013    0.16661987    0.87295008    0.10370000
opls_145-101    C    0.21746015    0.27446013    0.01005964    0.22510000
opls_145-102    C    0.20947009    0.23539000    0.90412026    -0.19130000
opls_145-103    C    0.75797001    0.78987986    0.89616024    -0.19050000
opls_145-104    C    0.50000000    0.09260987    0.97333951    -0.12640000
opls_145-105    C    0.50000000    0.98113997    0.97506876    -0.02050000
opls_145-106    C    0.50000000    0.90739013    0.97333951    -0.12640000
opls_145-107    C    0.50000000    0.01886003    0.97506876    -0.02050000
opls_145-108    C    1.00000000    0.59260987    0.02666049    -0.12640000
opls_145-109    C    0.00000000    0.48113997    0.02493124    -0.02050000
opls_145-110    C    1.00000000    0.40739013    0.02666049    -0.12640000
opls_145-111    C    1.00000000    0.51886003    0.02493124    -0.02050000
opls_750-112    N    0.31746986    0.20268998    0.98343999    -0.14850000
opls_750-113    N    0.68253014    0.79731002    0.98343999    -0.14850000
opls_750-114    N    0.18253014    0.70268998    0.01656001    -0.14840000
opls_750-115    N    0.81746986    0.29731002    0.01656001    -0.14850000
opls_750-116    N    0.18253014    0.29731002    0.01656001    -0.14850000
opls_750-117    N    0.81746986    0.70268998    0.01656001    -0.14850000
opls_750-118    N    0.31746986    0.79731002    0.98343999    -0.14850000
opls_750-119    N    0.68253014    0.20268998    0.98343999    -0.14850000
opls_146-120    H    0.39439007    0.02847986    0.08296070    0.25490000
opls_146-121    H    0.45410015    0.15644985    0.22066937    0.05000000
opls_146-122    H    0.39245013    0.19664992    0.15377032    0.11260000
opls_146-123    H    0.32164989    0.09470994    0.65454917    0.12200000
opls_146-124    H    0.37971014    0.06310014    0.57415920    0.10400000
opls_144-125    H    0.28881993    0.15129988    0.74307889    0.08330000
opls_146-126    H    0.82167997    0.22548014    0.80212957    0.12150000
opls_146-127    H    0.23433004    0.81994009    0.79309932    0.10040000
opls_146-128    H    0.60560993    0.97152014    0.08296070    0.25480000
opls_146-129    H    0.54589985    0.84355015    0.22066937    0.05000000
opls_146-130    H    0.60754987    0.80335008    0.15377032    0.11260000
opls_146-131    H    0.67835011    0.90529006    0.65454917    0.12200000
opls_146-132    H    0.62028986    0.93689986    0.57415920    0.10400000
opls_144-133    H    0.71118007    0.84870012    0.74307889    0.08330000
opls_146-134    H    0.17832003    0.77451986    0.80212957    0.12150000
opls_146-135    H    0.76566996    0.18005991    0.79309932    0.10050000
opls_146-136    H    0.10560993    0.52847986    0.91703930    0.25480000
opls_146-137    H    0.04589985    0.65644985    0.77933063    0.05000000
opls_146-138    H    0.10754987    0.69664992    0.84622968    0.11260000
opls_146-139    H    0.17835011    0.59470994    0.34545083    0.12200000
opls_146-140    H    0.12028986    0.56310014    0.42584080    0.10400000
opls_144-141    H    0.21118007    0.65129988    0.25692111    0.08330000
opls_146-142    H    0.67832003    0.72548014    0.19787043    0.12150000
opls_146-143    H    0.26566996    0.31994009    0.20690068    0.10040000
opls_146-144    H    0.89439007    0.47152014    0.91703930    0.25480000
opls_146-145    H    0.95410015    0.34355015    0.77933063    0.05000000
opls_146-146    H    0.89245013    0.30335008    0.84622968    0.11260000
opls_146-147    H    0.82164989    0.40529006    0.34545083    0.12200000
opls_146-148    H    0.87971014    0.43689986    0.42584080    0.10400000
opls_144-149    H    0.78881993    0.34870012    0.25692111    0.08330000
opls_146-150    H    0.32167997    0.27451986    0.19787043    0.12150000
opls_146-151    H    0.73433004    0.68005991    0.20690068    0.10040000
opls_146-152    H    0.10560993    0.47152014    0.91703930    0.25480000
opls_146-153    H    0.04589985    0.34355015    0.77933063    0.05000000
opls_146-154    H    0.10754987    0.30335008    0.84622968    0.11260000
opls_146-155    H    0.17835011    0.40529006    0.34545083    0.12200000
opls_146-156    H    0.12028986    0.43689986    0.42584080    0.10400000
opls_144-157    H    0.21118007    0.34870012    0.25692111    0.08330000
opls_146-158    H    0.67832003    0.27451986    0.19787043    0.12150000
opls_146-159    H    0.26566996    0.68005991    0.20690068    0.10040000
opls_146-160    H    0.89439007    0.52847986    0.91703930    0.25480000
opls_146-161    H    0.95410015    0.65644985    0.77933063    0.05000000
opls_146-162    H    0.89245013    0.69664992    0.84622968    0.11260000
opls_146-163    H    0.82164989    0.59470994    0.34545083    0.12200000
opls_146-164    H    0.87971014    0.56310014    0.42584080    0.10400000
opls_144-165    H    0.78881993    0.65129988    0.25692111    0.08330000
opls_146-166    H    0.32167997    0.72548014    0.19787043    0.12150000
opls_146-167    H    0.73433004    0.31994009    0.20690068    0.10040000
opls_146-168    H    0.39439007    0.97152014    0.08296070    0.25480000
opls_146-169    H    0.45410015    0.84355015    0.22066937    0.05000000
opls_146-170    H    0.39245013    0.80335008    0.15377032    0.11270000
opls_146-171    H    0.32164989    0.90529006    0.65454917    0.12200000
opls_146-172    H    0.37971014    0.93689986    0.57415920    0.10400000
opls_144-173    H    0.28881993    0.84870012    0.74307889    0.08330000
opls_146-174    H    0.82167997    0.77451986    0.80212957    0.12150000
opls_146-175    H    0.23433004    0.18005991    0.79309932    0.10040000
opls_146-176    H    0.60560993    0.02847986    0.08296070    0.25480000
opls_146-177    H    0.54589985    0.15644985    0.22066937    0.05000000
opls_146-178    H    0.60754987    0.19664992    0.15377032    0.11260000
opls_146-179    H    0.67835011    0.09470994    0.65454917    0.12200000
opls_146-180    H    0.62028986    0.06310014    0.57415920    0.10400000
opls_144-181    H    0.71118007    0.15129988    0.74307889    0.08330000
opls_146-182    H    0.17832003    0.22548014    0.80212957    0.12150000
opls_146-183    H    0.76566996    0.81994009    0.79309932    0.10040000
opls_146-184    H    1.00000000    0.62365008    0.11172081    0.25470000
opls_146-185    H    1.00000000    0.37634992    0.11172081    0.25470000
opls_146-186    H    0.50000000    0.12365008    0.88827919    0.25470000
opls_146-187    H    0.50000000    0.87634992    0.88827919    0.25470000
