#======================================================================
# Crystal Data Generated By AuToFF
#----------------------------------------------------------------------

data_AuToFF_phase_1

_cell_length_a                         23.3147
_cell_length_b                         23.3147
_cell_length_c                         3.4315
_cell_angle_alpha                      90.00
_cell_angle_beta                       90.00
_cell_angle_gamma                      120.00
_symmetry_space_group_name_H-M_alt     'P 1'
_symmetry_space_group_IT_number        1

loop_
_space_group_symop_operation_xyz
   'x, y, z'

loop_
   _atom_site_label
   _atom_site_type_symbol
   _atom_site_fract_x
   _atom_site_fract_y
   _atom_site_fract_z
   _atom_site_charge
opls_281-0    O    0.74382000    0.27755023    0.00000000    -0.34430000
opls_281-1    O    0.25268029    0.71848020    0.00000000    -0.34410000
opls_281-2    O    0.72244981    0.46626983    0.00000000    -0.34430000
opls_281-3    O    0.28152018    0.53420018    0.00000000    -0.34410000
opls_281-4    O    0.53372976    0.25617994    0.00000000    -0.34430000
opls_281-5    O    0.46580021    0.74732011    0.00000000    -0.34410000
opls_238-6    N    0.54318000    0.13996995    0.00000000    -0.33040000
opls_262-7    N    0.36317969    0.06029978    0.00000000    -0.29610000
opls_238-8    N    0.45195991    0.86065013    0.00000000    -0.33040000
opls_238-9    N    0.86002991    0.40320993    0.00000000    -0.33040000
opls_262-10    N    0.93970028    0.30288018    0.00000000    -0.29610000
opls_238-11    N    0.13935015    0.59130994    0.00000000    -0.33040000
opls_238-12    N    0.59679010    0.45682013    0.00000000    -0.33040000
opls_262-13    N    0.69712002    0.63682005    0.00000000    -0.29610000
opls_238-14    N    0.40868994    0.54803993    0.00000000    -0.33040000
opls_280-15    C    0.70945006    0.30321003    0.00000000    0.28730000
opls_700-16    C    0.63588998    0.25884993    0.00000000    -0.12770000
opls_142-17    C    0.61199016    0.19181006    0.00000000    0.05920000
opls_916-18    C    0.52010003    0.06936019    0.00000000    0.21690000
opls_145-19    C    0.56424985    0.04452007    0.00000000    -0.16340000
opls_700-20    C    0.45123995    0.02288977    0.00000000    -0.04100000
opls_261-21    C    0.40236993    0.04368009    0.00000000    0.24230000
opls_280-22    C    0.28866018    0.69461030    0.00000000    0.28350000
opls_700-23    C    0.36188997    0.74083013    0.00000000    -0.14800000
opls_142-24    C    0.38380000    0.80744010    0.00000000    0.06030000
opls_916-25    C    0.47289012    0.93051005    0.00000000    0.18690000
opls_145-26    C    0.42830032    0.95465036    0.00000000    -0.19790000
opls_145-27    C    0.54088005    0.97655009    0.00000000    -0.16470000
opls_280-28    C    0.69679007    0.40623997    0.00000000    0.28730000
opls_700-29    C    0.74114989    0.37704001    0.00000000    -0.12770000
opls_142-30    C    0.80819004    0.42018026    0.00000000    0.05920000
opls_916-31    C    0.93064018    0.45074023    0.00000000    0.21690000
opls_145-32    C    0.95548019    0.51972996    0.00000000    -0.16340000
opls_700-33    C    0.97711007    0.42835019    0.00000000    -0.04100000
opls_261-34    C    0.95631997    0.35868986    0.00000000    0.24250000
opls_280-35    C    0.30539024    0.59405026    0.00000000    0.28340000
opls_700-36    C    0.25917020    0.62106015    0.00000000    -0.14800000
opls_142-37    C    0.19256022    0.57636030    0.00000000    0.06030000
opls_916-38    C    0.06949022    0.54238002    0.00000000    0.18690000
opls_145-39    C    0.04535024    0.47365030    0.00000000    -0.19780000
opls_145-40    C    0.02345024    0.56433026    0.00000000    -0.16470000
opls_280-41    C    0.59375986    0.29055000    0.00000000    0.28730000
opls_700-42    C    0.62296013    0.36411006    0.00000000    -0.12770000
opls_142-43    C    0.57982005    0.38801017    0.00000000    0.05920000
opls_916-44    C    0.54926004    0.47990007    0.00000000    0.21690000
opls_145-45    C    0.48026996    0.43574997    0.00000000    -0.16340000
opls_700-46    C    0.57164999    0.54876005    0.00000000    -0.04100000
opls_261-47    C    0.64131010    0.59763005    0.00000000    0.24230000
opls_280-48    C    0.40594983    0.71133994    0.00000000    0.28350000
opls_700-49    C    0.37894007    0.63811022    0.00000000    -0.14800000
opls_142-50    C    0.42364003    0.61620009    0.00000000    0.06030000
opls_916-51    C    0.45762009    0.52710994    0.00000000    0.18690000
opls_145-52    C    0.52635012    0.57169984    0.00000000    -0.19930000
opls_145-53    C    0.43566995    0.45912015    0.00000000    -0.16470000
opls_146-54    H    0.61718028    0.07611019    0.00000000    0.12160000
opls_144-55    H    0.64810000    0.17611009    0.00000000    0.10940000
opls_910-56    H    0.50623002    0.15206982    0.00000000    0.28700000
opls_146-57    H    0.57652007    0.95965999    0.00000000    0.12090000
opls_146-58    H    0.37548027    0.92174035    0.00000000    0.10530000
opls_144-59    H    0.34658993    0.82173995    0.00000000    0.10930000
opls_910-60    H    0.49078977    0.85104987    0.00000000    0.29850000
opls_146-61    H    0.92389020    0.54107003    0.00000000    0.12160000
opls_144-62    H    0.82389027    0.47199016    0.00000000    0.10940000
opls_910-63    H    0.84793022    0.35416015    0.00000000    0.28700000
opls_146-64    H    0.04034005    0.61686028    0.00000000    0.12090000
opls_146-65    H    0.07825993    0.45374006    0.00000000    0.10530000
opls_144-66    H    0.17826009    0.52485003    0.00000000    0.10930000
opls_910-67    H    0.14895001    0.63974014    0.00000000    0.29850000
opls_146-68    H    0.45893020    0.38282027    0.00000000    0.12160000
opls_144-69    H    0.52800998    0.35190024    0.00000000    0.10940000
opls_910-70    H    0.64584018    0.49377003    0.00000000    0.28700000
opls_146-71    H    0.38314013    0.42348022    0.00000000    0.12090000
opls_146-72    H    0.54626005    0.62452009    0.00000000    0.10530000
opls_144-73    H    0.47514998    0.65341001    0.00000000    0.10930000
opls_910-74    H    0.36025980    0.50920999    0.00000000    0.29850000
