#======================================================================
# Crystal Data Generated By AuToFF
#----------------------------------------------------------------------

data_AuToFF_phase_1

_cell_length_a                         35.1300
_cell_length_b                         35.1300
_cell_length_c                         3.4500
_cell_angle_alpha                      90.00
_cell_angle_beta                       90.00
_cell_angle_gamma                      120.00
_symmetry_space_group_name_H-M_alt     'P 1'
_symmetry_space_group_IT_number        1

loop_
_space_group_symop_operation_xyz
   'x, y, z'

loop_
   _atom_site_label
   _atom_site_type_symbol
   _atom_site_fract_x
   _atom_site_fract_y
   _atom_site_fract_z
   _atom_site_charge
opls_520-0    N    0.62246002    0.31083009    0.00000000    -0.34600000
opls_573-1    N    0.57332988    0.08137993    0.00000000    -0.30370000
opls_520-2    N    0.68917003    0.31163013    0.00000000    -0.34600000
opls_573-3    N    0.91862010    0.49195013    0.00000000    -0.30370000
opls_520-4    N    0.68837011    0.37754010    0.00000000    -0.34600000
opls_573-5    N    0.50805003    0.42666994    0.00000000    -0.30370000
opls_520-6    N    0.37753998    0.68916991    0.00000000    -0.34600000
opls_573-7    N    0.42667012    0.91862007    0.00000000    -0.30370000
opls_520-8    N    0.31083013    0.68837020    0.00000000    -0.34600000
opls_573-9    N    0.08138007    0.50805020    0.00000000    -0.30370000
opls_520-10    N    0.31162989    0.62245990    0.00000000    -0.34600000
opls_573-11    N    0.49194997    0.57333006    0.00000000    -0.30370000
opls_531-12    C    0.64496985    0.28911988    0.00000000    0.40990000
opls_700-13    C    0.62173008    0.24178011    0.00000000    0.06310000
opls_523-14    C    0.57572014    0.21866999    0.00000000    -0.14370000
opls_145-15    C    0.55345014    0.17342006    0.00000000    -0.13200000
opls_700-16    C    0.57708008    0.15117013    0.00000000    0.00420000
opls_145-17    C    0.62303008    0.17408008    0.00000000    -0.14630000
opls_523-18    C    0.64535011    0.21937997    0.00000000    -0.10770000
opls_572-19    C    0.55332006    0.10404007    0.00000000    0.49440000
opls_575-20    C    0.49944992    0.03825994    0.00000000    0.20620000
opls_507-21    C    0.53852991    0.03825994    0.00000000    0.11610000
opls_145-22    C    0.45900005    0.99989022    0.00000000    -0.22540000
opls_531-23    C    0.71087999    0.35584994    0.00000000    0.40990000
opls_700-24    C    0.75822013    0.37995008    0.00000000    0.06310000
opls_523-25    C    0.78133001    0.35705000    0.00000000    -0.14370000
opls_145-26    C    0.82658002    0.38002996    0.00000000    -0.13200000
opls_700-27    C    0.84883003    0.42591000    0.00000000    0.00420000
opls_145-28    C    0.82591997    0.44895010    0.00000000    -0.14630000
opls_523-29    C    0.78062014    0.42597015    0.00000000    -0.10770000
opls_572-30    C    0.89596001    0.44928011    0.00000000    0.49450000
opls_575-31    C    0.96173989    0.46119000    0.00000000    0.20620000
opls_507-32    C    0.96173991    0.50027002    0.00000000    0.11610000
opls_145-33    C    0.00011009    0.45911002    0.00000000    -0.22530000
opls_531-34    C    0.64415016    0.35503018    0.00000000    0.41000000
opls_700-35    C    0.62004995    0.37827013    0.00000000    0.06310000
opls_523-36    C    0.64295014    0.42428000    0.00000000    -0.14370000
opls_145-37    C    0.61997012    0.44654998    0.00000000    -0.13200000
opls_700-38    C    0.57408988    0.42291987    0.00000000    0.00420000
opls_145-39    C    0.55105012    0.37697015    0.00000000    -0.14630000
opls_523-40    C    0.57403004    0.35464988    0.00000000    -0.10770000
opls_572-41    C    0.55072009    0.44668015    0.00000000    0.49440000
opls_575-42    C    0.53880990    0.50055007    0.00000000    0.20620000
opls_507-43    C    0.49972990    0.46147004    0.00000000    0.11620000
opls_145-44    C    0.54089002    0.54100009    0.00000000    -0.22540000
opls_531-45    C    0.35503015    0.71088012    0.00000000    0.41010000
opls_700-46    C    0.37827009    0.75822022    0.00000000    0.06310000
opls_523-47    C    0.42427986    0.78133001    0.00000000    -0.14370000
opls_145-48    C    0.44654986    0.82657994    0.00000000    -0.13200000
opls_700-49    C    0.42292008    0.84883020    0.00000000    0.00420000
opls_145-50    C    0.37696992    0.82591992    0.00000000    -0.14630000
opls_523-51    C    0.35464989    0.78062003    0.00000000    -0.10770000
opls_572-52    C    0.44667994    0.89595993    0.00000000    0.49450000
opls_575-53    C    0.50055008    0.96174006    0.00000000    0.20620000
opls_507-54    C    0.46147009    0.96174006    0.00000000    0.11610000
opls_145-55    C    0.54100012    0.00011011    0.00000000    -0.22530000
opls_531-56    C    0.28912001    0.64415006    0.00000000    0.40990000
opls_700-57    C    0.24177987    0.62004992    0.00000000    0.06310000
opls_523-58    C    0.21866999    0.64295000    0.00000000    -0.14370000
opls_145-59    C    0.17341998    0.61997004    0.00000000    -0.13200000
opls_700-60    C    0.15116997    0.57409000    0.00000000    0.00420000
opls_145-61    C    0.17408003    0.55104990    0.00000000    -0.14630000
opls_523-62    C    0.21938002    0.57403018    0.00000000    -0.10770000
opls_572-63    C    0.10403999    0.55071989    0.00000000    0.49450000
opls_575-64    C    0.03826011    0.53881000    0.00000000    0.20620000
opls_507-65    C    0.03826009    0.49972998    0.00000000    0.11610000
opls_145-66    C    0.99988991    0.54088998    0.00000000    -0.22540000
opls_531-67    C    0.35585001    0.64497015    0.00000000    0.40990000
opls_700-68    C    0.37995021    0.62173020    0.00000000    0.06320000
opls_523-69    C    0.35704986    0.57572000    0.00000000    -0.14370000
opls_145-70    C    0.38002988    0.55345002    0.00000000    -0.13200000
opls_700-71    C    0.42591012    0.57708013    0.00000000    0.00420000
opls_145-72    C    0.44895005    0.62303018    0.00000000    -0.14630000
opls_523-73    C    0.42596996    0.64535012    0.00000000    -0.10770000
opls_572-74    C    0.44928007    0.55332018    0.00000000    0.49440000
opls_575-75    C    0.46119010    0.49944993    0.00000000    0.20620000
opls_507-76    C    0.50027010    0.53852996    0.00000000    0.11610000
opls_145-77    C    0.45910998    0.45899991    0.00000000    -0.22540000
opls_180-78    O    0.50715998    0.08042015    0.00000000    -0.13280000
opls_180-79    O    0.91958005    0.42673995    0.00000000    -0.13270000
opls_180-80    O    0.57325997    0.49283990    0.00000000    -0.13280000
opls_180-81    O    0.49284019    0.91958018    0.00000000    -0.13280000
opls_180-82    O    0.08041995    0.57326005    0.00000000    -0.13280000
opls_180-83    O    0.42674003    0.50716010    0.00000000    -0.13280000
opls_526-84    H    0.55690000    0.23732007    0.00000000    0.04870000
opls_146-85    H    0.51598009    0.15439002    0.00000000    0.04870000
opls_146-86    H    0.64170989    0.15528998    0.00000000    0.04870000
opls_526-87    H    0.68281988    0.23860986    0.00000000    0.04870000
opls_146-88    H    0.42743995    0.00160008    0.00000000    0.04870000
opls_526-89    H    0.76268008    0.31957992    0.00000000    0.04870000
opls_146-90    H    0.84560993    0.36158992    0.00000000    0.04870000
opls_146-91    H    0.84470995    0.48642019    0.00000000    0.04870000
opls_526-92    H    0.76138995    0.44421001    0.00000000    0.04870000
opls_146-93    H    0.99839992    0.42583998    0.00000000    0.04870000
opls_526-94    H    0.68041992    0.44310001    0.00000000    0.04870000
opls_146-95    H    0.63840998    0.48402007    0.00000000    0.04870000
opls_146-96    H    0.51358004    0.35829016    0.00000000    0.04870000
opls_526-97    H    0.55579018    0.31718012    0.00000000    0.04870000
opls_146-98    H    0.57415984    0.57255993    0.00000000    0.04870000
opls_526-99    H    0.44310000    0.76267993    0.00000000    0.04870000
opls_146-100    H    0.48401991    0.84560998    0.00000000    0.04880000
opls_146-101    H    0.35829011    0.84471002    0.00000000    0.04870000
opls_526-102    H    0.31718012    0.76139014    0.00000000    0.04870000
opls_146-103    H    0.57256005    0.99839992    0.00000000    0.04870000
opls_526-104    H    0.23731992    0.68042008    0.00000000    0.04870000
opls_146-105    H    0.15439007    0.63841008    0.00000000    0.04870000
opls_146-106    H    0.15529021    0.51358014    0.00000000    0.04870000
opls_526-107    H    0.23861005    0.55578999    0.00000000    0.04870000
opls_146-108    H    0.00160008    0.57416002    0.00000000    0.04870000
opls_526-109    H    0.31958008    0.55689999    0.00000000    0.04870000
opls_146-110    H    0.36159002    0.51597993    0.00000000    0.04870000
opls_146-111    H    0.48642013    0.64171017    0.00000000    0.04870000
opls_526-112    H    0.44420999    0.68282020    0.00000000    0.04870000
opls_146-113    H    0.42584016    0.42744007    0.00000000    0.04870000
