#======================================================================
# Crystal Data Generated By AuToFF
#----------------------------------------------------------------------

data_AuToFF_phase_1

_cell_length_a                         27.1500
_cell_length_b                         27.1500
_cell_length_c                         3.6136
_cell_angle_alpha                      90.00
_cell_angle_beta                       90.00
_cell_angle_gamma                      120.00
_symmetry_space_group_name_H-M_alt     'P 1'
_symmetry_space_group_IT_number        1

loop_
_space_group_symop_operation_xyz
   'x, y, z'

loop_
   _atom_site_label
   _atom_site_type_symbol
   _atom_site_fract_x
   _atom_site_fract_y
   _atom_site_fract_z
   _atom_site_charge
opls_145-0    C    0.61092996    0.32458993    0.61033872    0.02990000
opls_145-1    C    0.48374996    0.33635002    0.38888089    0.17740000
opls_145-2    C    0.47250006    0.38067010    0.33130950    -0.24450000
opls_145-3    C    0.41624998    0.36910991    0.28468010    0.20080000
opls_145-4    C    0.37193020    0.31256021    0.27954948    -0.15880000
opls_145-5    C    0.38297003    0.26797984    0.33305014    -0.08980000
opls_145-6    C    0.43878996    0.27989005    0.39054129    -0.15930000
opls_145-7    C    0.36151987    0.49166000    0.12778946    -0.11840000
opls_700-8    C    0.41428020    0.50742007    0.29046104    0.05580000
opls_145-9    C    0.44778002    0.56302007    0.42257029    -0.11150000
opls_145-10    C    0.42828018    0.60180014    0.40293890    -0.12460000
opls_700-11    C    0.37517978    0.58643986    0.24134935    0.06610000
opls_145-12    C    0.34253001    0.53081987    0.09907018    -0.12430000
opls_142-13    C    0.43425007    0.46622979    0.33590049    0.07350000
opls_700-14    C    0.35369993    0.62769010    0.22768984    0.07170000
opls_166-15    C    0.61949006    0.27778012    0.62340049    0.14640000
opls_145-16    C    0.39172994    0.68670997    0.22617888    -0.16440000
opls_145-17    C    0.67541004    0.28633979    0.61033872    0.02990000
opls_145-18    C    0.66365000    0.14740018    0.38888089    0.17740000
opls_145-19    C    0.61933008    0.09182995    0.33130950    -0.24450000
opls_145-20    C    0.63089000    0.04713985    0.28468010    0.20080000
opls_145-21    C    0.68744001    0.05936990    0.27954948    -0.15880000
opls_145-22    C    0.73201980    0.11498988    0.33305014    -0.08980000
opls_145-23    C    0.72011003    0.15889998    0.39054129    -0.15930000
opls_145-24    C    0.50833991    0.86985993    0.12778946    -0.11840000
opls_700-25    C    0.49257996    0.90686011    0.29046104    0.05580000
opls_145-26    C    0.43698002    0.88476004    0.42257029    -0.11150000
opls_145-27    C    0.39819995    0.82648020    0.40293890    -0.12460000
opls_700-28    C    0.41356005    0.78873999    0.24134935    0.06610000
opls_145-29    C    0.46917977    0.81170981    0.09907018    -0.12430000
opls_142-30    C    0.53376991    0.96802011    0.33590049    0.07350000
opls_700-31    C    0.37231007    0.72601019    0.22768984    0.07170000
opls_166-32    C    0.72222007    0.34171012    0.62340049    0.14640000
opls_145-33    C    0.31329019    0.70502016    0.22617888    -0.16440000
opls_145-34    C    0.71365979    0.38906986    0.61033872    0.02990000
opls_145-35    C    0.85260004    0.51624980    0.38888089    0.17740000
opls_145-36    C    0.90816986    0.52749995    0.33130950    -0.24450000
opls_145-37    C    0.95285980    0.58374981    0.28468010    0.20080000
opls_145-38    C    0.94062979    0.62806990    0.27954948    -0.15880000
opls_145-39    C    0.88500996    0.61702986    0.33305014    -0.08980000
opls_145-40    C    0.84110001    0.56120997    0.39054129    -0.15930000
opls_145-41    C    0.13014022    0.63848007    0.12778946    -0.11840000
opls_700-42    C    0.09313984    0.58571982    0.29046104    0.05580000
opls_145-43    C    0.11523997    0.55221990    0.42257029    -0.11140000
opls_145-44    C    0.17352008    0.57172009    0.40293890    -0.12460000
opls_700-45    C    0.21126017    0.62482015    0.24134935    0.06610000
opls_145-46    C    0.18829001    0.65746989    0.09907018    -0.12430000
opls_142-47    C    0.03198002    0.56575009    0.33590049    0.07350000
opls_700-48    C    0.27399021    0.64630013    0.22768984    0.07170000
opls_166-49    C    0.65829008    0.38051019    0.62340049    0.14650000
opls_145-50    C    0.29497987    0.60826987    0.22617888    -0.16430000
opls_750-51    N    0.55355990    0.31309992    0.56305900    -0.13370000
opls_750-52    N    0.54130993    0.34967989    0.44258911    -0.13000000
opls_750-53    N    0.40221999    0.41325987    0.24118884    -0.32330000
opls_750-54    N    0.68690004    0.24046011    0.56305900    -0.13370000
opls_750-55    N    0.65032002    0.19163010    0.44258911    -0.13000000
opls_750-56    N    0.58674002    0.98895996    0.24118884    -0.32330000
opls_750-57    N    0.75954006    0.44643997    0.56305900    -0.13370000
opls_750-58    N    0.80837005    0.45869000    0.44258911    -0.13000000
opls_750-59    N    0.01103999    0.59778017    0.24118884    -0.32310000
opls_167-60    O    0.57135016    0.22362998    0.65945871    -0.50770000
opls_167-61    O    0.77637018    0.34772009    0.65945871    -0.50760000
opls_167-62    O    0.65228003    0.42864993    0.65945871    -0.50760000
opls_146-63    H    0.50792006    0.42361986    0.32278891    0.12300000
opls_146-64    H    0.32870005    0.30345019    0.23841045    0.12590000
opls_146-65    H    0.34836001    0.22435980    0.33140082    0.12210000
opls_146-66    H    0.44749021    0.24549018    0.43233894    0.12350000
opls_146-67    H    0.33540005    0.44918021    0.01776898    0.12130000
opls_146-68    H    0.48828990    0.57587999    0.55404029    0.12140000
opls_146-69    H    0.45412994    0.64297000    0.52974873    0.12180000
opls_146-70    H    0.30278004    0.51747978    0.95723102    0.12730000
opls_144-71    H    0.47481991    0.48054000    0.46975869    0.12760000
opls_168-72    H    0.57903999    0.19559011    0.79688123    0.31830000
opls_146-73    H    0.43679007    0.70217020    0.22764003    0.13400000
opls_146-74    H    0.57637981    0.08429994    0.32278891    0.12980000
opls_146-75    H    0.69654980    0.02524988    0.23841045    0.12590000
opls_146-76    H    0.77564012    0.12399995    0.33140082    0.12210000
opls_146-77    H    0.75451006    0.20199986    0.43233894    0.12350000
opls_146-78    H    0.55082018    0.88622011    0.01776898    0.12130000
opls_146-79    H    0.42411987    0.91240990    0.55404029    0.12130000
opls_146-80    H    0.35703004    0.81115989    0.52974873    0.12180000
opls_146-81    H    0.48252005    0.78530013    0.95723102    0.12730000
opls_144-82    H    0.51946012    0.99428009    0.46975869    0.12760000
opls_168-83    H    0.80441003    0.38344989    0.79688123    0.31830000
opls_146-84    H    0.29783010    0.73462005    0.22764003    0.13400000
opls_146-85    H    0.91570014    0.49208020    0.32278891    0.12310000
opls_146-86    H    0.97475015    0.67129993    0.23841045    0.12590000
opls_146-87    H    0.87600002    0.65163982    0.33140082    0.12210000
opls_146-88    H    0.79800010    0.55250995    0.43233894    0.12350000
opls_146-89    H    0.11377998    0.66460011    0.01776898    0.12130000
opls_146-90    H    0.08759023    0.51171011    0.55404029    0.12130000
opls_146-91    H    0.18884003    0.54587011    0.52974873    0.12180000
opls_146-92    H    0.21469991    0.69722009    0.95723102    0.12730000
opls_144-93    H    0.00571998    0.52517991    0.46975869    0.12770000
opls_168-94    H    0.61654998    0.42096000    0.79688123    0.31830000
opls_146-95    H    0.26538004    0.56321018    0.22764003    0.13400000
