#======================================================================
# Crystal Data Generated By AuToFF
#----------------------------------------------------------------------

data_AuToFF_phase_1

_cell_length_a                         22.5611
_cell_length_b                         22.6039
_cell_length_c                         3.7992
_cell_angle_alpha                      93.38
_cell_angle_beta                       91.72
_cell_angle_gamma                      59.84
_symmetry_space_group_name_H-M_alt     'P 1'
_symmetry_space_group_IT_number        1

loop_
_space_group_symop_operation_xyz
   'x, y, z'

loop_
   _atom_site_label
   _atom_site_type_symbol
   _atom_site_fract_x
   _atom_site_fract_y
   _atom_site_fract_z
   _atom_site_charge
opls_700-0    C    0.02902992    0.04192977    0.98916044    0.00330000
opls_700-1    C    0.95711003    0.07060989    0.00786006    0.07970000
opls_700-2    C    0.92953994    0.02692998    0.01613937    0.00150000
opls_700-3    C    0.97287009    0.95494007    0.00018984    0.07410000
opls_700-4    C    0.04439018    0.92718964    0.98656855    0.00020000
opls_700-5    C    0.07304995    0.97034987    0.98313026    0.07870000
opls_142-6    C    0.05472028    0.08975982    0.94779030    0.07020000
opls_142-7    C    0.85534987    0.05421982    0.05712982    0.06970000
opls_142-8    C    0.09132025    0.85279998    0.95003942    0.06960000
opls_145-9    C    0.73927012    0.13227957    0.94581803    0.22030000
opls_145-10    C    0.69855024    0.20397984    0.94678043    -0.21610000
opls_700-11    C    0.70674014    0.09324964    0.98523964    0.09190000
opls_700-12    C    0.62779024    0.23961962    0.99671992    0.09280000
opls_145-13    C    0.63609006    0.12889984    0.03753108    -0.20560000
opls_145-14    C    0.59542008    0.20059013    0.04105901    0.18150000
opls_145-15    C    0.13130022    0.13070001    0.05972963    0.17700000
opls_145-16    C    0.20307031    0.09938976    0.06030971    -0.20510000
opls_700-17    C    0.09168005    0.20205018    0.01215001    0.09190000
opls_700-18    C    0.23835018    0.13392005    0.00611983    0.09190000
opls_145-19    C    0.12698025    0.23666978    0.95938923    -0.22050000
opls_145-20    C    0.19882029    0.20533975    0.95780983    0.21540000
opls_145-21    C    0.12821027    0.73874985    0.05987992    0.17700000
opls_145-22    C    0.09711034    0.69825985    0.04354017    -0.20600000
opls_700-23    C    0.20039006    0.70629983    0.02388078    0.09290000
opls_700-24    C    0.13304020    0.62739005    0.98202020    0.09190000
opls_145-25    C    0.23628022    0.63544977    0.96182029    -0.20560000
opls_145-26    C    0.20518004    0.59494987    0.94427027    0.21150000
opls_148-27    C    0.94122027    0.90996976    0.97016023    -0.42170000
opls_148-28    C    0.91218002    0.14736984    0.04082962    -0.43410000
opls_148-29    C    0.14984030    0.93789965    0.97122020    -0.42770000
opls_700-30    C    0.37629997    0.26195987    0.99699941    0.08010000
opls_142-31    C    0.47864993    0.27791977    0.94001988    0.06950000
opls_700-32    C    0.36191988    0.37710990    0.99212939    0.07970000
opls_700-33    C    0.29031988    0.40565006    0.00457998    0.00030000
opls_142-34    C    0.24321013    0.48009985    0.04574974    0.07010000
opls_142-35    C    0.27782992    0.24415004    0.04752952    0.07080000
opls_700-36    C    0.30404006    0.29148010    0.00552920    0.00470000
opls_700-37    C    0.26086010    0.36312996    0.00382061    0.08030000
opls_700-38    C    0.40463013    0.30493977    0.98405048    0.00120000
opls_148-39    C    0.31541037    0.09324962    0.99234033    -0.42990000
opls_148-40    C    0.59058999    0.31670990    0.01183097    -0.43340000
opls_148-41    C    0.09343006    0.59002960    0.94852858    -0.43110000
opls_148-42    C    0.01454024    0.24199986    0.02398097    -0.43330000
opls_148-43    C    0.74365017    0.01615967    0.96175964    -0.43330000
opls_148-44    C    0.23993019    0.74377016    0.05735922    -0.43110000
opls_148-45    C    0.39494990    0.42083989    0.01261934    -0.42170000
opls_148-46    C    0.42044022    0.18506986    0.97827870    -0.43400000
opls_148-47    C    0.18386989    0.39651998    0.00218057    -0.42150000
opls_144-48    H    0.02814989    0.12721002    0.74394016    0.06190000
opls_144-49    H    0.84131005    0.02883975    0.24988992    0.06490000
opls_144-50    H    0.13271040    0.83571973    0.75614817    0.06550000
opls_702-51    H    0.93239032    0.89675983    0.22993785    0.12520000
opls_702-52    H    0.89177006    0.93581999    0.83338827    0.12540000
opls_702-53    H    0.97489002    0.86141002    0.82591053    0.12680000
opls_702-54    H    0.93855015    0.17059973    0.18834095    0.12420000
opls_702-55    H    0.89845001    0.16979016    0.78095971    0.12770000
opls_702-56    H    0.86384016    0.16243977    0.17302951    0.13300000
opls_702-57    H    0.17320030    0.90773983    0.20409799    0.12080000
opls_702-58    H    0.17154004    0.90198971    0.74053879    0.12370000
opls_702-59    H    0.16582027    0.97610003    0.96802976    0.12770000
opls_144-60    H    0.20236007    0.49612000    0.24214060    0.06660000
opls_144-61    H    0.30725992    0.20424016    0.23577028    0.06490000
opls_144-62    H    0.49174015    0.30367002    0.74515832    0.06580000
opls_702-63    H    0.33288018    0.03868995    0.93795006    0.12480000
opls_702-64    H    0.33593996    0.11014965    0.78672886    0.12480000
opls_702-65    H    0.33932015    0.09756959    0.24150778    0.12060000
opls_702-66    H    0.54900033    0.33890974    0.20672944    0.12480000
opls_702-67    H    0.62634030    0.33507972    0.08295914    0.12260000
opls_702-68    H    0.56719022    0.33803987    0.75823909    0.12230000
opls_702-69    H    0.08966029    0.57036958    0.19976850    0.12210000
opls_702-70    H    0.04088012    0.62471996    0.86005869    0.12190000
opls_702-71    H    0.11731019    0.54580960    0.75898001    0.12390000
opls_702-72    H    0.99413014    0.22132986    0.20984868    0.12570000
opls_702-73    H    0.99634015    0.29585983    0.10448005    0.11980000
opls_702-74    H    0.99134007    0.24132987    0.76617035    0.12430000
opls_702-75    H    0.70819006    0.99831983    0.87402804    0.12150000
opls_702-76    H    0.78655020    0.99468992    0.77488998    0.12410000
opls_702-77    H    0.76511033    0.99369959    0.21609771    0.12210000
opls_702-78    H    0.29194026    0.70964000    0.15453028    0.12260000
opls_702-79    H    0.24516011    0.76187000    0.80403893    0.12510000
opls_702-80    H    0.21503015    0.78907995    0.23969108    0.12150000
opls_702-81    H    0.43904975    0.39956016    0.19244105    0.12390000
opls_702-82    H    0.35869027    0.47362982    0.10078073    0.12750000
opls_702-83    H    0.41411008    0.42315012    0.75379094    0.12450000
opls_702-84    H    0.16171026    0.42565978    0.25234998    0.12450000
opls_702-85    H    0.16194981    0.43348011    0.79429888    0.12480000
opls_702-86    H    0.42386029    0.16381983    0.23628971    0.12500000
opls_702-87    H    0.39877022    0.16184977    0.79245845    0.12260000
opls_702-88    H    0.16744999    0.35882978    0.95503073    0.12590000
opls_702-89    H    0.47291012    0.16866976    0.90054026    0.12980000
opls_146-90    H    0.23203995    0.04451987    0.10146101    0.10790000
opls_146-91    H    0.60972017    0.10034009    0.07452954    0.10790000
opls_146-92    H    0.29187028    0.60886980    0.92929898    0.10630000
opls_146-93    H    0.09797029    0.29155959    0.91864926    0.10500000
opls_146-94    H    0.72495016    0.23252971    0.91018011    0.10500000
opls_146-95    H    0.04151026    0.72488988    0.07512017    0.10800000
opls_750-96    N    0.80962006    0.10583008    0.89260901    -0.29260000
opls_750-97    N    0.08362026    0.80941008    0.11857069    -0.29010000
opls_750-98    N    0.10582992    0.08690999    0.12021073    -0.28150000
opls_750-99    N    0.22406015    0.24914980    0.89406975    -0.28920000
opls_750-100    N    0.52538025    0.22665974    0.10243923    -0.28920000
opls_750-101    N    0.24985031    0.52441960    0.88029025    -0.29260000
