#======================================================================
# Crystal Data Generated By AuToFF
#----------------------------------------------------------------------

data_AuToFF_phase_1

_cell_length_a                         15.3900
_cell_length_b                         3.2800
_cell_length_c                         14.4800
_cell_angle_alpha                      90.00
_cell_angle_beta                       120.00
_cell_angle_gamma                      90.00
_symmetry_space_group_name_H-M_alt     'P 1'
_symmetry_space_group_IT_number        1

loop_
_space_group_symop_operation_xyz
   'x, y, z'

loop_
   _atom_site_label
   _atom_site_type_symbol
   _atom_site_fract_x
   _atom_site_fract_y
   _atom_site_fract_z
   _atom_site_charge
opls_238-0    N    0.48134013    0.51643902    0.45564013    -0.12400000
opls_238-1    N    0.02391954    0.51643902    0.50034968    -0.06710000
opls_238-2    N    0.49611990    0.51643902    0.03264022    -0.12410000
opls_238-3    N    0.45238031    0.51643902    0.51547003    -0.12400000
opls_238-4    N    0.90979992    0.51643902    0.47075012    -0.13810000
opls_238-5    N    0.43759957    0.51643902    0.93845958    -0.12410000
opls_700-6    C    0.19877005    0.51643902    0.62359959    -0.11130000
opls_700-7    C    0.38328011    0.51643902    0.75967002    -0.11090000
opls_700-8    C    0.33184016    0.51643902    0.57100968    -0.11090000
opls_142-9    C    0.46218000    0.51643902    0.86825970    0.09830000
opls_142-10    C    0.09257012    0.51643902    0.59568981    -0.08820000
opls_142-11    C    0.57457987    0.51643902    0.48077958    -0.08140000
opls_280-12    C    0.65644962    0.51643902    0.23879969    0.25360000
opls_280-13    C    0.70817989    0.51643902    0.42853019    0.25370000
opls_280-14    C    0.52263005    0.51643902    0.29169979    0.25130000
opls_700-15    C    0.73495007    0.51643902    0.34750021    -0.11130000
opls_700-16    C    0.55044033    0.51643902    0.21144015    -0.11090000
opls_700-17    C    0.60187990    0.51643902    0.40009968    -0.11090000
opls_142-18    C    0.47154011    0.51643902    0.10284010    0.08600000
opls_142-19    C    0.84114999    0.51643902    0.37540999    -0.08820000
opls_142-20    C    0.35914020    0.51643902    0.49032978    -0.08140000
opls_280-21    C    0.27726984    0.51643902    0.73230011    0.25370000
opls_280-22    C    0.22553957    0.51643902    0.54256961    0.25370000
opls_280-23    C    0.41109001    0.51643902    0.67940957    0.25130000
opls_144-24    H    0.54376982    0.51643902    0.88799965    0.02520000
opls_144-25    H    0.07226980    0.51643902    0.66138014    0.02520000
opls_144-26    H    0.63598014    0.51643902    0.56822022    0.02520000
opls_144-27    H    0.38995030    0.51643902    0.08310015    0.02520000
opls_144-28    H    0.86144966    0.51643902    0.30971966    0.02520000
opls_144-29    H    0.29773997    0.51643902    0.40287957    0.02520000
opls_910-30    H    0.49003002    0.75803963    0.56813011    0.27240000
opls_910-31    H    0.38575033    0.74689024    0.92565022    0.26900000
opls_910-32    H    0.01663002    0.72331098    0.45690966    0.27910000
opls_910-33    H    0.44369009    0.75803963    0.40296969    0.27250000
opls_910-34    H    0.54797016    0.74689024    0.04545038    0.26900000
opls_910-35    H    0.90059011    0.30957012    0.51984003    0.27200000
opls_281-36    O    0.67606007    0.51643902    0.18085973    -0.29670000
opls_281-37    O    0.44634980    0.51643902    0.27164963    -0.29660000
opls_281-38    O    0.16886980    0.51643902    0.46456992    -0.29670000
opls_281-39    O    0.25766000    0.51643902    0.79024964    -0.29670000
opls_281-40    O    0.48737032    0.51643902    0.69945016    -0.29660000
opls_281-41    O    0.76484966    0.51643902    0.50652988    -0.29670000
