#======================================================================
# Crystal Data Generated By AuToFF
#----------------------------------------------------------------------

data_AuToFF_phase_1

_cell_length_a                         24.4000
_cell_length_b                         24.4000
_cell_length_c                         22.2500
_cell_angle_alpha                      90.00
_cell_angle_beta                       90.00
_cell_angle_gamma                      120.00
_symmetry_space_group_name_H-M_alt     'P 1'
_symmetry_space_group_IT_number        1

loop_
_space_group_symop_operation_xyz
   'x, y, z'

loop_
   _atom_site_label
   _atom_site_type_symbol
   _atom_site_fract_x
   _atom_site_fract_y
   _atom_site_fract_z
   _atom_site_charge
opls_700-0    C    0.47738018    0.95967019    0.05009978    0.03130000
opls_521-1    C    0.32212988    0.54349009    0.50688989    0.11010000
opls_142-2    C    0.18857996    0.51670009    0.28747011    0.07220000
opls_522-3    C    0.16827975    0.67358982    0.53635011    -0.16240000
opls_523-4    C    0.14927023    0.64156013    0.59036989    -0.11890000
opls_700-5    C    0.18278009    0.61372002    0.61553978    0.01250000
opls_521-6    C    0.23387984    0.61624001    0.58345978    0.09060000
opls_700-7    C    0.46166024    0.51814016    0.88328989    0.06420000
opls_145-8    C    0.48126975    0.57886983    0.85929978    -0.12700000
opls_145-9    C    0.46276001    0.58487002    0.80164989    -0.17440000
opls_145-10    C    0.42401012    0.52983008    0.76769978    0.19780000
opls_145-11    C    0.40355993    0.46956986    0.79248989    -0.16190000
opls_145-12    C    0.42175987    0.46360990    0.84979011    -0.11550000
opls_700-13    C    0.02688986    0.51596989    0.94256989    0.03130000
opls_521-14    C    0.46737000    0.75108017    0.45155011    0.11010000
opls_142-15    C    0.41953975    0.83325982    0.67608000    0.07240000
opls_522-16    C    0.21997017    0.74520018    0.42008000    -0.16470000
opls_523-17    C    0.24728998    0.77708980    0.36720000    -0.11430000
opls_700-18    C    0.30320996    0.78052976    0.34544000    0.00620000
opls_521-19    C    0.33191016    0.75238015    0.37870022    0.09060000
opls_700-20    C    0.46301024    0.54684014    0.10194022    0.06690000
opls_145-21    C    0.42511987    0.50512990    0.14736000    -0.12660000
opls_145-22    C    0.41453998    0.52933980    0.19994022    -0.16240000
opls_145-23    C    0.44240982    0.59535981    0.20808989    0.19940000
opls_145-24    C    0.47672978    0.63678989    0.16096000    -0.16350000
opls_145-25    C    0.48685027    0.61262021    0.10828000    -0.12140000
opls_145-26    C    0.46738989    0.53381995    0.99272000    -0.16470000
opls_700-27    C    0.04032999    0.51770998    0.05009978    0.03130000
opls_521-28    C    0.45651023    0.77864012    0.50688989    0.11010000
opls_142-29    C    0.48329984    0.67188001    0.28747011    0.07220000
opls_522-30    C    0.32641006    0.49468980    0.53635011    -0.16230000
opls_523-31    C    0.35843983    0.50770999    0.59036989    -0.11890000
opls_700-32    C    0.38628004    0.56906008    0.61553978    0.01250000
opls_521-33    C    0.38376009    0.61763985    0.58345978    0.09060000
opls_700-34    C    0.48186000    0.94352000    0.88328989    0.06420000
opls_145-35    C    0.42112986    0.90239988    0.85929978    -0.12720000
opls_145-36    C    0.41512981    0.87788995    0.80164989    -0.17440000
opls_145-37    C    0.47017003    0.89418021    0.76769978    0.19780000
opls_145-38    C    0.53042980    0.93398994    0.79248989    -0.16190000
opls_145-39    C    0.53639024    0.95815015    0.84979011    -0.11550000
opls_700-40    C    0.48403006    0.51091997    0.94256989    0.03130000
opls_521-41    C    0.24892004    0.71629008    0.45155011    0.11020000
opls_142-42    C    0.16673990    0.58627979    0.67608000    0.07240000
opls_522-43    C    0.25480006    0.47476979    0.42008000    -0.16470000
opls_523-44    C    0.22290994    0.47020021    0.36720000    -0.11430000
opls_700-45    C    0.21946988    0.52267993    0.34544000    0.00620000
opls_521-46    C    0.24761992    0.57953000    0.37870022    0.09060000
opls_700-47    C    0.45316008    0.91617016    0.10194022    0.06690000
opls_145-48    C    0.49487007    0.91999014    0.14736000    -0.12660000
opls_145-49    C    0.47065986    0.88520005    0.19994022    -0.16240000
opls_145-50    C    0.40464015    0.84704998    0.20808989    0.19950000
opls_145-51    C    0.36321019    0.83994005    0.16096000    -0.16360000
opls_145-52    C    0.38738013    0.87422992    0.10828000    -0.12140000
opls_145-53    C    0.46618017    0.93357017    0.99272000    -0.16470000
opls_700-54    C    0.48228983    0.52261983    0.05009978    0.03130000
opls_521-55    C    0.22135989    0.67786979    0.50688989    0.11010000
opls_142-56    C    0.32811978    0.81141989    0.28747011    0.07220000
opls_522-57    C    0.50530995    0.83171991    0.53635011    -0.16240000
opls_523-58    C    0.49228994    0.85072987    0.59036989    -0.11890000
opls_700-59    C    0.43093987    0.81721990    0.61553978    0.01250000
opls_521-60    C    0.38236007    0.76612014    0.58345978    0.09060000
opls_700-61    C    0.05647976    0.53833984    0.88328989    0.06420000
opls_145-62    C    0.09759974    0.51872981    0.85929978    -0.12720000
opls_145-63    C    0.12211018    0.53724004    0.80164989    -0.17440000
opls_145-64    C    0.10582009    0.57599018    0.76769978    0.19780000
opls_145-65    C    0.06601027    0.59644021    0.79248989    -0.16190000
opls_145-66    C    0.04184989    0.57823995    0.84979011    -0.11550000
opls_700-67    C    0.48908007    0.97311015    0.94256989    0.03130000
opls_521-68    C    0.28371020    0.53263023    0.45155011    0.11010000
opls_142-69    C    0.41372012    0.58045991    0.67608000    0.07240000
opls_522-70    C    0.52523018    0.78003002    0.42008000    -0.16470000
opls_523-71    C    0.52980008    0.75271000    0.36720000    -0.11430000
opls_700-72    C    0.47731992    0.69678984    0.34544000    0.00620000
opls_521-73    C    0.42046993    0.66808985    0.37870022    0.09060000
opls_700-74    C    0.08382992    0.53699017    0.10194022    0.06690000
opls_145-75    C    0.08001006    0.57487996    0.14736000    -0.12660000
opls_145-76    C    0.11480015    0.58546014    0.19994022    -0.16240000
opls_145-77    C    0.15295003    0.55759022    0.20808989    0.19940000
opls_145-78    C    0.16006003    0.52327006    0.16096000    -0.16360000
opls_145-79    C    0.12577001    0.51314986    0.10828000    -0.12140000
opls_145-80    C    0.06642994    0.53260988    0.99272000    -0.16470000
opls_700-81    C    0.52261982    0.04032981    0.94990022    0.03130000
opls_521-82    C    0.67787012    0.45650991    0.49311011    0.11010000
opls_142-83    C    0.81142004    0.48329991    0.71252989    0.07220000
opls_522-84    C    0.83172025    0.32641018    0.46364989    -0.16240000
opls_523-85    C    0.85072977    0.35843987    0.40963011    -0.11890000
opls_700-86    C    0.81721991    0.38627998    0.38446022    0.01250000
opls_521-87    C    0.76612016    0.38375999    0.41654022    0.09060000
opls_700-88    C    0.53833976    0.48185984    0.11671011    0.06420000
opls_145-89    C    0.51873025    0.42113017    0.14069978    -0.12720000
opls_145-90    C    0.53723999    0.41512998    0.19835011    -0.17440000
opls_145-91    C    0.57598988    0.47016992    0.23230022    0.19790000
opls_145-92    C    0.59644007    0.53043014    0.20751011    -0.16190000
opls_145-93    C    0.57824013    0.53639010    0.15020989    -0.11550000
opls_700-94    C    0.97311014    0.48403011    0.05743011    0.03130000
opls_521-95    C    0.53263000    0.24891983    0.54844989    0.11010000
opls_142-96    C    0.58046025    0.16674018    0.32392000    0.07240000
opls_522-97    C    0.78002983    0.25479982    0.57992000    -0.16470000
opls_523-98    C    0.75271002    0.22291020    0.63280000    -0.11430000
opls_700-99    C    0.69678980    0.21946977    0.65456000    0.00620000
opls_521-100    C    0.66808984    0.24761985    0.62129978    0.09060000
opls_700-101    C    0.53698976    0.45315986    0.89806022    0.06690000
opls_145-102    C    0.57488013    0.49487010    0.85264000    -0.12660000
opls_145-103    C    0.58546002    0.47066020    0.80006022    -0.16240000
opls_145-104    C    0.55759018    0.40464019    0.79191011    0.19940000
opls_145-105    C    0.52327022    0.36321011    0.83904000    -0.16360000
opls_145-106    C    0.51314973    0.38737979    0.89172000    -0.12140000
opls_145-107    C    0.53261011    0.46618005    0.00728000    -0.16470000
opls_700-108    C    0.95967001    0.48229002    0.94990022    0.03130000
opls_521-109    C    0.54348977    0.22135988    0.49311011    0.11010000
opls_142-110    C    0.51670016    0.32811999    0.71252989    0.07220000
opls_522-111    C    0.67358994    0.50531020    0.46364989    -0.16240000
opls_523-112    C    0.64156017    0.49229001    0.40963011    -0.11890000
opls_700-113    C    0.61371996    0.43093992    0.38446022    0.01250000
opls_521-114    C    0.61623991    0.38236015    0.41654022    0.09060000
opls_700-115    C    0.51814000    0.05648000    0.11671011    0.06420000
opls_145-116    C    0.57887014    0.09760012    0.14069978    -0.12720000
opls_145-117    C    0.58487019    0.12211005    0.19835011    -0.17440000
opls_145-118    C    0.52982997    0.10581979    0.23230022    0.19780000
opls_145-119    C    0.46957020    0.06601006    0.20751011    -0.16190000
opls_145-120    C    0.46360976    0.04184985    0.15020989    -0.11550000
opls_700-121    C    0.51596994    0.48908003    0.05743011    0.03130000
opls_521-122    C    0.75107996    0.28370992    0.54844989    0.11010000
opls_142-123    C    0.83326010    0.41372021    0.32392000    0.07240000
opls_522-124    C    0.74519994    0.52523021    0.57992000    -0.16470000
opls_523-125    C    0.77709006    0.52979979    0.63280000    -0.11430000
opls_700-126    C    0.78053012    0.47732007    0.65456000    0.00620000
opls_521-127    C    0.75238008    0.42047000    0.62129978    0.09060000
opls_700-128    C    0.54683992    0.08382984    0.89806022    0.06690000
opls_145-129    C    0.50512993    0.08000986    0.85264000    -0.12660000
opls_145-130    C    0.52934014    0.11479995    0.80006022    -0.16240000
opls_145-131    C    0.59535985    0.15295002    0.79191011    0.19950000
opls_145-132    C    0.63678981    0.16005995    0.83904000    -0.16360000
opls_145-133    C    0.61261987    0.12577008    0.89172000    -0.12140000
opls_145-134    C    0.53381983    0.06642983    0.00728000    -0.16470000
opls_700-135    C    0.51771017    0.47738017    0.94990022    0.03130000
opls_521-136    C    0.77864011    0.32213021    0.49311011    0.11010000
opls_142-137    C    0.67188022    0.18858011    0.71252989    0.07220000
opls_522-138    C    0.49469005    0.16828009    0.46364989    -0.16240000
opls_523-139    C    0.50771006    0.14927013    0.40963011    -0.11890000
opls_700-140    C    0.56906013    0.18278010    0.38446022    0.01250000
opls_521-141    C    0.61763993    0.23387986    0.41654022    0.09060000
opls_700-142    C    0.94352024    0.46166016    0.11671011    0.06420000
opls_145-143    C    0.90240026    0.48127019    0.14069978    -0.12710000
opls_145-144    C    0.87788982    0.46275996    0.19835011    -0.17440000
opls_145-145    C    0.89417991    0.42400982    0.23230022    0.19790000
opls_145-146    C    0.93398973    0.40355979    0.20751011    -0.16190000
opls_145-147    C    0.95815011    0.42176005    0.15020989    -0.11550000
opls_700-148    C    0.51091993    0.02688985    0.05743011    0.03130000
opls_521-149    C    0.71628980    0.46736977    0.54844989    0.11020000
opls_142-150    C    0.58627988    0.41954009    0.32392000    0.07240000
opls_522-151    C    0.47476982    0.21996998    0.57992000    -0.16470000
opls_523-152    C    0.47019992    0.24729000    0.63280000    -0.11430000
opls_700-153    C    0.52268008    0.30321016    0.65456000    0.00620000
opls_521-154    C    0.57953007    0.33191015    0.62129978    0.09060000
opls_700-155    C    0.91617008    0.46300983    0.89806022    0.06690000
opls_145-156    C    0.91998994    0.42512004    0.85264000    -0.12660000
opls_145-157    C    0.88519985    0.41453986    0.80006022    -0.16230000
opls_145-158    C    0.84704997    0.44240978    0.79191011    0.19950000
opls_145-159    C    0.83993997    0.47672994    0.83904000    -0.16360000
opls_145-160    C    0.87422999    0.48685014    0.89172000    -0.12140000
opls_145-161    C    0.93357006    0.46739012    0.00728000    -0.16470000
opls_750-162    N    0.43738012    0.61941023    0.26502022    -0.34000000
opls_239-163    N    0.25160008    0.64801983    0.53054022    -0.31420000
opls_750-164    N    0.40440018    0.53167003    0.70791011    -0.34010000
opls_239-165    N    0.30416020    0.72138023    0.43034022    -0.31240000
opls_750-166    N    0.38058991    0.81796998    0.26502022    -0.34000000
opls_239-167    N    0.35198014    0.60357995    0.53054022    -0.31410000
opls_750-168    N    0.46833004    0.87272976    0.70791011    -0.34000000
opls_239-169    N    0.27862002    0.58278020    0.43034022    -0.31240000
opls_750-170    N    0.18202998    0.56261979    0.26502022    -0.33980000
opls_239-171    N    0.39642019    0.74840022    0.53054022    -0.31420000
opls_750-172    N    0.12727019    0.59560021    0.70791011    -0.33990000
opls_239-173    N    0.41722002    0.69584005    0.43034022    -0.31240000
opls_750-174    N    0.56261988    0.38058977    0.73497978    -0.34000000
opls_239-175    N    0.74839992    0.35198017    0.46945978    -0.31420000
opls_750-176    N    0.59559982    0.46832997    0.29208989    -0.34000000
opls_239-177    N    0.69583980    0.27861977    0.56965978    -0.31230000
opls_750-178    N    0.61941009    0.18203002    0.73497978    -0.33980000
opls_239-179    N    0.64801986    0.39642005    0.46945978    -0.31420000
opls_750-180    N    0.53166972    0.12726977    0.29208989    -0.34010000
opls_239-181    N    0.72137998    0.41721980    0.56965978    -0.31220000
opls_750-182    N    0.81797002    0.43738021    0.73497978    -0.34000000
opls_239-183    N    0.60357981    0.25159978    0.46945978    -0.31420000
opls_750-184    N    0.87272981    0.40439979    0.29208989    -0.34010000
opls_239-185    N    0.58277998    0.30415995    0.56965978    -0.31240000
opls_144-186    H    0.16978998    0.47163980    0.26400989    0.10770000
opls_525-187    H    0.14248994    0.69607004    0.51960989    0.11490000
opls_526-188    H    0.10912996    0.64016976    0.61319011    0.11220000
opls_524-189    H    0.26082011    0.59570007    0.60191011    0.11030000
opls_146-190    H    0.51203980    0.62146976    0.88468000    0.11420000
opls_146-191    H    0.47954009    0.63219002    0.78395011    0.11380000
opls_146-192    H    0.37353995    0.42687007    0.76692989    0.11460000
opls_146-193    H    0.40542008    0.41634999    0.86778022    0.10970000
opls_144-194    H    0.37154000    0.81002999    0.69388000    0.10350000
opls_525-195    H    0.17608987    0.74241991    0.43457978    0.11440000
opls_526-196    H    0.22395996    0.79826009    0.34259011    0.11280000
opls_524-197    H    0.37445998    0.75342979    0.36252000    0.11020000
opls_146-198    H    0.40566988    0.45408977    0.14284000    0.04830000
opls_146-199    H    0.38720006    0.49685013    0.23545978    0.12420000
opls_146-200    H    0.49677011    0.68790006    0.16528000    0.11020000
opls_146-201    H    0.51569019    0.64544021    0.07352000    0.12440000
opls_146-202    H    0.44094994    0.55884004    0.98719011    0.11840000
opls_144-203    H    0.52835980    0.69814992    0.26400989    0.10770000
opls_525-204    H    0.30393008    0.44642000    0.51960989    0.11490000
opls_526-205    H    0.35982993    0.46895985    0.61319011    0.11220000
opls_524-206    H    0.40430007    0.66511981    0.60191011    0.10910000
opls_146-207    H    0.37853002    0.89056988    0.88468000    0.11420000
opls_146-208    H    0.36780984    0.84735001    0.78395011    0.11380000
opls_146-209    H    0.57313002    0.94666987    0.76692989    0.11460000
opls_146-210    H    0.58365021    0.98907010    0.86778022    0.10970000
opls_144-211    H    0.18997019    0.56151005    0.69388000    0.10350000
opls_525-212    H    0.25758010    0.43367003    0.43457978    0.11440000
opls_526-213    H    0.20174028    0.42570023    0.34259011    0.11280000
opls_524-214    H    0.24656998    0.62103013    0.36252000    0.11010000
opls_146-215    H    0.54591018    0.95158019    0.14284000    0.04830000
opls_146-216    H    0.50314991    0.89034983    0.23545978    0.12420000
opls_146-217    H    0.31210021    0.80887009    0.16528000    0.11020000
opls_146-218    H    0.35455983    0.87024999    0.07352000    0.12450000
opls_146-219    H    0.44115982    0.88210981    0.98719011    0.11850000
opls_144-220    H    0.30184998    0.83020981    0.26400989    0.10780000
opls_525-221    H    0.55357998    0.85750995    0.51960989    0.11490000
opls_526-222    H    0.53103988    0.89086992    0.61319011    0.11220000
opls_524-223    H    0.33488023    0.73918012    0.60191011    0.10910000
opls_146-224    H    0.10942994    0.48795988    0.88468000    0.11430000
opls_146-225    H    0.15265007    0.52045997    0.78395011    0.11380000
opls_146-226    H    0.05333003    0.62646006    0.76692989    0.11470000
opls_146-227    H    0.01093012    0.59457991    0.86778022    0.10970000
opls_144-228    H    0.43848982    0.62845996    0.69388000    0.10350000
opls_525-229    H    0.56633003    0.82391006    0.43457978    0.11440000
opls_526-230    H    0.57429999    0.77604015    0.34259011    0.11280000
opls_524-231    H    0.37897004    0.62554008    0.36252000    0.11010000
opls_146-232    H    0.04841994    0.59433004    0.14284000    0.04830000
opls_146-233    H    0.10965002    0.61280004    0.23545978    0.12420000
opls_146-234    H    0.19113009    0.50322985    0.16528000    0.11020000
opls_146-235    H    0.12974998    0.48430980    0.07352000    0.12440000
opls_146-236    H    0.11789024    0.55905015    0.98719011    0.11840000
opls_144-237    H    0.83021002    0.52836020    0.73599011    0.10770000
opls_525-238    H    0.85751006    0.30392996    0.48039011    0.11500000
opls_526-239    H    0.89086980    0.35982977    0.38680989    0.11220000
opls_524-240    H    0.73917989    0.40429993    0.39808989    0.11030000
opls_146-241    H    0.48795996    0.37852976    0.11532000    0.11420000
opls_146-242    H    0.52045991    0.36780998    0.21604989    0.11380000
opls_146-243    H    0.62646005    0.57312993    0.23307011    0.11460000
opls_146-244    H    0.59457992    0.58365001    0.13222022    0.10970000
opls_144-245    H    0.62846000    0.18997001    0.30612000    0.10350000
opls_525-246    H    0.82391013    0.25758009    0.56542022    0.11440000
opls_526-247    H    0.77604004    0.20173991    0.65740989    0.11280000
opls_524-248    H    0.62554002    0.24657021    0.63748000    0.11010000
opls_146-249    H    0.59433012    0.54591023    0.85716000    0.04830000
opls_146-250    H    0.61279994    0.50314987    0.76454022    0.12420000
opls_146-251    H    0.50322989    0.31209994    0.83472000    0.11030000
opls_146-252    H    0.48430981    0.35455979    0.92648000    0.12440000
opls_146-253    H    0.55905006    0.44115996    0.01280989    0.11840000
opls_144-254    H    0.47164020    0.30185008    0.73599011    0.10770000
opls_525-255    H    0.69606992    0.55358000    0.48039011    0.11490000
opls_526-256    H    0.64017007    0.53104015    0.38680989    0.11220000
opls_524-257    H    0.59569993    0.33488019    0.39808989    0.10910000
opls_146-258    H    0.62146998    0.10943012    0.11532000    0.11420000
opls_146-259    H    0.63219016    0.15264999    0.21604989    0.11390000
opls_146-260    H    0.42686998    0.05333013    0.23307011    0.11460000
opls_146-261    H    0.41634979    0.01092990    0.13222022    0.10970000
opls_144-262    H    0.81002981    0.43848995    0.30612000    0.10350000
opls_525-263    H    0.74241990    0.56632997    0.56542022    0.11440000
opls_526-264    H    0.79825972    0.57429977    0.65740989    0.11280000
opls_524-265    H    0.75343002    0.37896987    0.63748000    0.11010000
opls_146-266    H    0.45408982    0.04841981    0.85716000    0.04830000
opls_146-267    H    0.49685009    0.10965017    0.76454022    0.12420000
opls_146-268    H    0.68789979    0.19112991    0.83472000    0.11020000
opls_146-269    H    0.64544017    0.12975001    0.92648000    0.12440000
opls_146-270    H    0.55884018    0.11789019    0.01280989    0.11840000
opls_144-271    H    0.69815002    0.16979019    0.73599011    0.10780000
opls_525-272    H    0.44642002    0.14249005    0.48039011    0.11490000
opls_526-273    H    0.46896012    0.10913008    0.38680989    0.11220000
opls_524-274    H    0.66511977    0.26081988    0.39808989    0.10910000
opls_146-275    H    0.89057006    0.51204012    0.11532000    0.11420000
opls_146-276    H    0.84734993    0.47954003    0.21604989    0.11380000
opls_146-277    H    0.94666997    0.37353994    0.23307011    0.11470000
opls_146-278    H    0.98906988    0.40542009    0.13222022    0.10970000
opls_144-279    H    0.56151018    0.37154004    0.30612000    0.10350000
opls_525-280    H    0.43366997    0.17608994    0.56542022    0.11440000
opls_526-281    H    0.42570001    0.22395985    0.65740989    0.11280000
opls_524-282    H    0.62102996    0.37445992    0.63748000    0.11010000
opls_146-283    H    0.95158006    0.40566996    0.85716000    0.04830000
opls_146-284    H    0.89034998    0.38719996    0.76454022    0.12430000
opls_146-285    H    0.80886991    0.49677015    0.83472000    0.11020000
opls_146-286    H    0.87025002    0.51569020    0.92648000    0.12440000
opls_146-287    H    0.88210976    0.44094985    0.01280989    0.11840000
F2_Ru6+2-288    Ru    0.33333015    0.66667014    0.48069978    0.49680000
F2_Ru6+2-289    Ru    0.66666985    0.33332986    0.51930022    0.49670000
