#======================================================================
# Crystal Data Generated By AuToFF
#----------------------------------------------------------------------

data_AuToFF_phase_1

_cell_length_a                         29.7800
_cell_length_b                         29.7800
_cell_length_c                         3.4500
_cell_angle_alpha                      90.00
_cell_angle_beta                       90.00
_cell_angle_gamma                      120.00
_symmetry_space_group_name_H-M_alt     'P 1'
_symmetry_space_group_IT_number        1

loop_
_space_group_symop_operation_xyz
   'x, y, z'

loop_
   _atom_site_label
   _atom_site_type_symbol
   _atom_site_fract_x
   _atom_site_fract_y
   _atom_site_fract_z
   _atom_site_charge
opls_142-0    C    0.05853004    0.49901978    0.00000000    -0.03390000
opls_145-1    C    0.85174997    0.48652009    0.00000000    -0.06550000
opls_523-2    C    0.79798004    0.45392986    0.00000000    -0.06560000
opls_700-3    C    0.77617019    0.39975006    0.00000000    0.00030000
opls_523-4    C    0.80942998    0.37896003    0.00000000    -0.06560000
opls_145-5    C    0.86321014    0.41158012    0.00000000    -0.06570000
opls_531-6    C    0.71914003    0.36515984    0.00000000    0.44020000
opls_700-7    C    0.53429999    0.41911979    0.00000000    0.08010000
opls_142-8    C    0.50098004    0.55951011    0.00000000    -0.03390000
opls_145-9    C    0.51348003    0.36524011    0.00000000    -0.06550000
opls_523-10    C    0.54606995    0.34403984    0.00000000    -0.06560000
opls_700-11    C    0.60024992    0.37641992    0.00000000    0.00030000
opls_523-12    C    0.62103981    0.43046982    0.00000000    -0.06560000
opls_145-13    C    0.58841999    0.45162976    0.00000000    -0.06570000
opls_531-14    C    0.63483992    0.35398003    0.00000000    0.43890000
opls_700-15    C    0.58088013    0.11518001    0.00000000    0.08010000
opls_142-16    C    0.44048973    0.94146972    0.00000000    -0.03390000
opls_145-17    C    0.63475993    0.14824988    0.00000000    -0.06550000
opls_523-18    C    0.65595988    0.20201983    0.00000000    -0.06570000
opls_700-19    C    0.62357989    0.22383002    0.00000000    0.00050000
opls_523-20    C    0.56953021    0.19057015    0.00000000    -0.06560000
opls_145-21    C    0.54837021    0.13679012    0.00000000    -0.06570000
opls_531-22    C    0.64602006    0.28086012    0.00000000    0.44020000
opls_700-23    C    0.88482002    0.46569982    0.00000000    0.08030000
opls_142-24    C    0.94146977    0.50097983    0.00000000    -0.03390000
opls_145-25    C    0.14825003    0.51347991    0.00000000    -0.06550000
opls_523-26    C    0.20201977    0.54606975    0.00000000    -0.06560000
opls_700-27    C    0.22382981    0.60024994    0.00000000    0.00030000
opls_523-28    C    0.19057002    0.62103997    0.00000000    -0.06560000
opls_145-29    C    0.13678986    0.58841988    0.00000000    -0.06570000
opls_531-30    C    0.28085978    0.63483977    0.00000000    0.44020000
opls_700-31    C    0.46569982    0.58087982    0.00000000    0.08010000
opls_142-32    C    0.49901996    0.44048989    0.00000000    -0.03390000
opls_145-33    C    0.48651997    0.63475989    0.00000000    -0.06550000
opls_523-34    C    0.45392985    0.65595977    0.00000000    -0.06560000
opls_700-35    C    0.39975008    0.62358008    0.00000000    0.00030000
opls_523-36    C    0.37895999    0.56952979    0.00000000    -0.06560000
opls_145-37    C    0.41157982    0.54836985    0.00000000    -0.06570000
opls_531-38    C    0.36516008    0.64601997    0.00000000    0.44010000
opls_700-39    C    0.41911987    0.88481999    0.00000000    0.08010000
opls_142-40    C    0.55951008    0.05852989    0.00000000    -0.03390000
opls_145-41    C    0.36523988    0.85174973    0.00000000    -0.06550000
opls_523-42    C    0.34403992    0.79797978    0.00000000    -0.06570000
opls_700-43    C    0.37642011    0.77616998    0.00000000    0.00050000
opls_523-44    C    0.43046979    0.80942985    0.00000000    -0.06560000
opls_145-45    C    0.45162979    0.86320988    0.00000000    -0.06570000
opls_531-46    C    0.35397994    0.71913988    0.00000000    0.44020000
opls_700-47    C    0.11517978    0.53429980    0.00000000    0.08030000
opls_750-48    N    0.02683995    0.51689011    0.00000000    -0.13270000
opls_520-49    N    0.68716007    0.38540006    0.00000000    -0.33930000
opls_750-50    N    0.48310993    0.50994989    0.00000000    -0.13260000
opls_520-51    N    0.61459989    0.30174981    0.00000000    -0.34020000
opls_750-52    N    0.49005011    0.97316000    0.00000000    -0.13260000
opls_520-53    N    0.69825011    0.31284005    0.00000000    -0.34010000
opls_750-54    N    0.97316005    0.48310989    0.00000000    -0.13260000
opls_520-55    N    0.31283993    0.61459994    0.00000000    -0.33930000
opls_750-56    N    0.51689007    0.49005011    0.00000000    -0.13260000
opls_520-57    N    0.38539992    0.69824980    0.00000000    -0.34010000
opls_750-58    N    0.50994989    0.02684000    0.00000000    -0.13260000
opls_520-59    N    0.30174989    0.68715995    0.00000000    -0.34010000
opls_144-60    H    0.04279008    0.45538002    0.00000000    0.03190000
opls_146-61    H    0.86903976    0.53038979    0.00000000    0.05410000
opls_526-62    H    0.77139011    0.47122012    0.00000000    0.05410000
opls_526-63    H    0.79258006    0.33515004    0.00000000    0.05410000
opls_146-64    H    0.88982003    0.39432979    0.00000000    0.05410000
opls_144-65    H    0.54461995    0.58740981    0.00000000    0.03190000
opls_146-66    H    0.46961000    0.33864981    0.00000000    0.05410000
opls_526-67    H    0.52878017    0.30017014    0.00000000    0.05410000
opls_526-68    H    0.66485000    0.45744010    0.00000000    0.05410000
opls_146-69    H    0.60567000    0.49549985    0.00000000    0.05410000
opls_144-70    H    0.41258978    0.95720978    0.00000000    0.03190000
opls_146-71    H    0.66135005    0.13096001    0.00000000    0.05410000
opls_526-72    H    0.69982991    0.22861013    0.00000000    0.05410000
opls_526-73    H    0.54255987    0.20741994    0.00000000    0.05410000
opls_146-74    H    0.50450003    0.11018005    0.00000000    0.05410000
opls_144-75    H    0.95720992    0.54461998    0.00000000    0.03190000
opls_146-76    H    0.13096005    0.46960982    0.00000000    0.05410000
opls_526-77    H    0.22860989    0.52877988    0.00000000    0.05410000
opls_526-78    H    0.20741994    0.66484996    0.00000000    0.05410000
opls_146-79    H    0.11017977    0.60566982    0.00000000    0.05410000
opls_144-80    H    0.45537986    0.41258980    0.00000000    0.03190000
opls_146-81    H    0.53038981    0.66134980    0.00000000    0.05410000
opls_526-82    H    0.47121983    0.69982986    0.00000000    0.05410000
opls_526-83    H    0.33515000    0.54255990    0.00000000    0.05410000
opls_146-84    H    0.39432980    0.50449976    0.00000000    0.05410000
opls_144-85    H    0.58741003    0.04278983    0.00000000    0.03190000
opls_146-86    H    0.33864995    0.86903999    0.00000000    0.05410000
opls_526-87    H    0.30017009    0.77138987    0.00000000    0.05410000
opls_526-88    H    0.45744013    0.79258006    0.00000000    0.05410000
opls_146-89    H    0.49549997    0.88981995    0.00000000    0.05410000
