#======================================================================
# Crystal Data Generated By AuToFF
#----------------------------------------------------------------------

data_AuToFF_phase_1

_cell_length_a                         29.7647
_cell_length_b                         29.7647
_cell_length_c                         6.1262
_cell_angle_alpha                      90.00
_cell_angle_beta                       90.00
_cell_angle_gamma                      120.00
_symmetry_space_group_name_H-M_alt     'P 1'
_symmetry_space_group_IT_number        1

loop_
_space_group_symop_operation_xyz
   'x, y, z'

loop_
   _atom_site_label
   _atom_site_type_symbol
   _atom_site_fract_x
   _atom_site_fract_y
   _atom_site_fract_z
   _atom_site_charge
opls_521-0    C    0.82203998    0.12634990    0.00000000    0.17090000
opls_522-1    C    0.79351009    0.07167012    0.00000000    -0.17480000
opls_523-2    C    0.81939988    0.04366996    0.00000000    -0.16900000
opls_522-3    C    0.87382996    0.07046983    0.00000000    0.19290000
opls_521-4    C    0.89941008    0.12511003    0.00000000    0.02200000
opls_142-5    C    0.95170024    0.06154016    0.00000000    0.10700000
opls_700-6    C    0.97441002    0.03056990    0.00000000    -0.10600000
opls_280-7    C    0.94271988    0.97401985    0.00000000    0.35430000
opls_521-8    C    0.79690992    0.15875011    0.00000000    0.15580000
opls_521-9    C    0.80843014    0.24156001    0.00000000    0.02190000
opls_522-10    C    0.75465008    0.22328014    0.00000000    0.15480000
opls_523-11    C    0.72105980    0.16938983    0.00000000    -0.16800000
opls_522-12    C    0.74256994    0.13726001    0.00000000    -0.18150000
opls_142-13    C    0.69035991    0.25212990    0.00000000    0.11460000
opls_700-14    C    0.67969984    0.29262998    0.00000000    -0.15560000
opls_280-15    C    0.72145008    0.34656994    0.00000000    0.34640000
opls_521-16    C    0.87364998    0.69568984    0.00000000    0.17090000
opls_522-17    C    0.92833001    0.72183990    0.00000000    -0.17480000
opls_523-18    C    0.95632991    0.77572983    0.00000000    -0.16890000
opls_522-19    C    0.92953005    0.80335990    0.00000000    0.19290000
opls_521-20    C    0.87488977    0.77429987    0.00000000    0.02190000
opls_142-21    C    0.93845997    0.89015979    0.00000000    0.10700000
opls_700-22    C    0.96943006    0.94383984    0.00000000    -0.10600000
opls_280-23    C    0.02597985    0.96869999    0.00000000    0.34510000
opls_521-24    C    0.84124981    0.63815985    0.00000000    0.15580000
opls_521-25    C    0.75843991    0.56686991    0.00000000    0.02190000
opls_522-26    C    0.77671990    0.53137003    0.00000000    0.15480000
opls_523-27    C    0.83060991    0.55166992    0.00000000    -0.16800000
opls_522-28    C    0.86273994    0.60531001    0.00000000    -0.18150000
opls_142-29    C    0.74786986    0.43822999    0.00000000    0.11460000
opls_700-30    C    0.70736985    0.38707002    0.00000000    -0.15560000
opls_280-31    C    0.65342995    0.37488008    0.00000000    0.34630000
opls_521-32    C    0.30430984    0.17795988    0.00000000    0.17090000
opls_522-33    C    0.27815990    0.20648997    0.00000000    -0.17650000
opls_523-34    C    0.22427002    0.18059983    0.00000000    -0.16900000
opls_522-35    C    0.19663979    0.12616989    0.00000000    0.19290000
opls_521-36    C    0.22570014    0.10059010    0.00000000    0.02190000
opls_142-37    C    0.10984012    0.04830005    0.00000000    0.10700000
opls_700-38    C    0.05616007    0.02558988    0.00000000    -0.10540000
opls_280-39    C    0.03129994    0.05728016    0.00000000    0.35430000
opls_521-40    C    0.36183993    0.20309004    0.00000000    0.15580000
opls_521-41    C    0.43312995    0.19157008    0.00000000    0.02190000
opls_522-42    C    0.46863002    0.24534983    0.00000000    0.15480000
opls_523-43    C    0.44833009    0.27893986    0.00000000    -0.16800000
opls_522-44    C    0.39469012    0.25742998    0.00000000    -0.18150000
opls_142-45    C    0.56176990    0.30964011    0.00000000    0.11460000
opls_700-46    C    0.61292997    0.32030000    0.00000000    -0.15560000
opls_280-47    C    0.62511997    0.27854998    0.00000000    0.34630000
opls_521-48    C    0.48861000    0.45891006    0.50000000    0.16720000
opls_522-49    C    0.45975993    0.40421011    0.50000000    -0.17910000
opls_523-50    C    0.48529989    0.37582006    0.50000000    -0.16920000
opls_522-51    C    0.53975003    0.40232005    0.50000000    0.19270000
opls_521-52    C    0.56562980    0.45699983    0.50000000    0.02610000
opls_142-53    C    0.61767981    0.39390984    0.50000000    0.11170000
opls_700-54    C    0.64065998    0.36332985    0.50000000    -0.22700000
opls_280-55    C    0.60948990    0.30687990    0.50000000    0.34660000
opls_521-56    C    0.46399000    0.49178007    0.50000000    0.16420000
opls_521-57    C    0.47618999    0.57489994    0.50000000    0.01530000
opls_522-58    C    0.42250994    0.55704991    0.50000000    0.19280000
opls_523-59    C    0.38865980    0.50322982    0.50000000    -0.16760000
opls_522-60    C    0.40972989    0.47073999    0.50000000    -0.17650000
opls_142-61    C    0.35810988    0.58609985    0.50000000    0.11950000
opls_700-62    C    0.34694007    0.62621004    0.50000000    -0.11770000
opls_280-63    C    0.38843003    0.68042972    0.50000000    0.35430000
opls_521-64    C    0.54109021    0.02970013    0.50000000    0.16720000
opls_522-65    C    0.59579010    0.05554993    0.50000000    -0.17910000
opls_523-66    C    0.62417988    0.10947981    0.50000000    -0.16920000
opls_522-67    C    0.59767981    0.13742993    0.50000000    0.19270000
opls_521-68    C    0.54299983    0.10862983    0.50000000    0.03030000
opls_142-69    C    0.60608994    0.22377011    0.50000000    0.11170000
opls_700-70    C    0.63666997    0.27732990    0.50000000    -0.22700000
opls_280-71    C    0.69311987    0.30260981    0.50000000    0.34660000
opls_521-72    C    0.50821998    0.97220971    0.50000000    0.16420000
opls_521-73    C    0.42509991    0.90128987    0.50000000    0.01530000
opls_522-74    C    0.44295009    0.86545985    0.50000000    0.19280000
opls_523-75    C    0.49676997    0.88542999    0.50000000    -0.16760000
opls_522-76    C    0.52925998    0.93898977    0.50000000    -0.17650000
opls_142-77    C    0.41390005    0.77200984    0.50000000    0.11950000
opls_700-78    C    0.37378996    0.72073000    0.50000000    -0.11770000
opls_280-79    C    0.31956997    0.70800004    0.50000000    0.35430000
opls_521-80    C    0.97029979    0.51138981    0.50000000    0.16720000
opls_522-81    C    0.94444997    0.54023996    0.50000000    -0.17910000
opls_523-82    C    0.89052003    0.51469974    0.50000000    -0.16910000
opls_522-83    C    0.86257015    0.46025001    0.50000000    0.19270000
opls_521-84    C    0.89136983    0.43436996    0.50000000    0.02610000
opls_142-85    C    0.77622992    0.38232005    0.50000000    0.11170000
opls_700-86    C    0.72266986    0.35933986    0.50000000    -0.22700000
opls_280-87    C    0.69739003    0.39050991    0.50000000    0.34660000
opls_521-88    C    0.02778983    0.53600983    0.50000000    0.16420000
opls_521-89    C    0.09870991    0.52380980    0.50000000    0.01530000
opls_522-90    C    0.13453977    0.57748985    0.50000000    0.19280000
opls_523-91    C    0.11457004    0.61133980    0.50000000    -0.16750000
opls_522-92    C    0.06100994    0.59026985    0.50000000    -0.17650000
opls_142-93    C    0.22798988    0.64188992    0.50000000    0.11950000
opls_700-94    C    0.27926997    0.65305996    0.50000000    -0.11760000
opls_280-95    C    0.29199981    0.61156985    0.50000000    0.35430000
opls_520-96    N    0.87470979    0.15216982    0.00000000    -0.29220000
opls_238-97    N    0.89996996    0.04220004    0.00000000    -0.23590000
opls_520-98    N    0.82918016    0.21098003    0.00000000    -0.28820000
opls_238-99    N    0.73887007    0.26022006    0.00000000    -0.23480000
opls_520-100    N    0.84782980    0.72253975    0.00000000    -0.29220000
opls_238-101    N    0.95780015    0.85777005    0.00000000    -0.23590000
opls_520-102    N    0.78901974    0.61819980    0.00000000    -0.28820000
opls_238-103    N    0.73977978    0.47864976    0.00000000    -0.23480000
opls_520-104    N    0.27745988    0.12529004    0.00000000    -0.29220000
opls_238-105    N    0.14222989    0.10002991    0.00000000    -0.23590000
opls_520-106    N    0.38179991    0.17081979    0.00000000    -0.28810000
opls_238-107    N    0.52134995    0.26112979    0.00000000    -0.23480000
opls_520-108    N    0.54126006    0.48435989    0.50000000    -0.28850000
opls_238-109    N    0.56585994    0.37405997    0.50000000    -0.23190000
opls_520-110    N    0.49656009    0.54394986    0.50000000    -0.29040000
opls_238-111    N    0.40685991    0.59426993    0.50000000    -0.23100000
opls_520-112    N    0.51563984    0.05689997    0.50000000    -0.28850000
opls_238-113    N    0.62594001    0.19180013    0.50000000    -0.23200000
opls_520-114    N    0.45604997    0.95260967    0.50000000    -0.29040000
opls_238-115    N    0.40572982    0.81258983    0.50000000    -0.23100000
opls_520-116    N    0.94309990    0.45873975    0.50000000    -0.28850000
opls_238-117    N    0.80820005    0.43413991    0.50000000    -0.23200000
opls_520-118    N    0.04739008    0.50344008    0.50000000    -0.29040000
opls_238-119    N    0.18741008    0.59313985    0.50000000    -0.23100000
opls_281-120    O    0.05796001    0.10623001    0.00000000    -0.44840000
opls_281-121    O    0.58966991    0.23135983    0.00000000    -0.48120000
opls_281-122    O    0.89377001    0.95172982    0.00000000    -0.44840000
opls_281-123    O    0.76863980    0.35830987    0.00000000    -0.48130000
opls_281-124    O    0.04826979    0.94203978    0.00000000    -0.44840000
opls_281-125    O    0.64169010    0.41032991    0.00000000    -0.48130000
opls_281-126    O    0.72360997    0.43956994    0.50000000    -0.47090000
opls_281-127    O    0.25680006    0.56442005    0.50000000    -0.44840000
opls_281-128    O    0.56043014    0.28404015    0.50000000    -0.47100000
opls_281-129    O    0.43558007    0.69237991    0.50000000    -0.44840000
opls_281-130    O    0.71595989    0.27638991    0.50000000    -0.47100000
opls_281-131    O    0.30761987    0.74320004    0.50000000    -0.44830000
opls_910-132    H    0.87972988    0.00149009    0.00000000    0.26710000
opls_910-133    H    0.76639983    0.30000981    0.00000000    0.26720000
opls_525-134    H    0.75125008    0.05069987    0.00000000    0.10630000
opls_526-135    H    0.79797987    0.00132987    0.00000000    0.10660000
opls_524-136    H    0.94174977    0.14813987    0.00000000    0.08030000
opls_144-137    H    0.97725004    0.10351015    0.00000000    0.09050000
opls_524-138    H    0.83551012    0.28349004    0.00000000    0.07660000
opls_526-139    H    0.67905008    0.15264001    0.00000000    0.10600000
opls_525-140    H    0.71660991    0.09539011    0.00000000    0.10610000
opls_144-141    H    0.65785980    0.21239990    0.00000000    0.09300000
opls_910-142    H    0.99851008    0.87823986    0.00000000    0.26710000
opls_910-143    H    0.69998989    0.46638999    0.00000000    0.26710000
opls_525-144    H    0.94930001    0.70054999    0.00000000    0.10640000
opls_526-145    H    0.99867006    0.79665004    0.00000000    0.10660000
opls_524-146    H    0.85186001    0.79360973    0.00000000    0.08030000
opls_144-147    H    0.89648981    0.87373972    0.00000000    0.09050000
opls_524-148    H    0.71650991    0.55201984    0.00000000    0.07660000
opls_526-149    H    0.84735995    0.52640979    0.00000000    0.10600000
opls_525-150    H    0.90460991    0.62121993    0.00000000    0.10610000
opls_144-151    H    0.78760017    0.44546008    0.00000000    0.09300000
opls_910-152    H    0.12176004    0.12027005    0.00000000    0.26710000
opls_910-153    H    0.53360975    0.23359981    0.00000000    0.26710000
opls_525-154    H    0.29944991    0.24875014    0.00000000    0.10660000
opls_526-155    H    0.20335007    0.20202010    0.00000000    0.10660000
opls_524-156    H    0.20639002    0.05825001    0.00000000    0.08030000
opls_144-157    H    0.12626015    0.02275013    0.00000000    0.09050000
opls_524-158    H    0.44797997    0.16449011    0.00000000    0.07660000
opls_526-159    H    0.47358977    0.32094981    0.00000000    0.10600000
opls_525-160    H    0.37877985    0.28338995    0.00000000    0.10610000
opls_144-161    H    0.55454003    0.34214002    0.00000000    0.09300000
opls_910-162    H    0.54595986    0.33333993    0.50000000    0.26720000
opls_910-163    H    0.43442010    0.63406007    0.50000000    0.26710000
opls_525-164    H    0.41748996    0.38346991    0.50000000    0.10660000
opls_526-165    H    0.46353988    0.33345980    0.50000000    0.10640000
opls_524-166    H    0.60795982    0.47978992    0.50000000    0.08020000
opls_144-167    H    0.64289986    0.43582978    0.50000000    0.10110000
opls_524-168    H    0.50356008    0.61676984    0.50000000    0.07790000
opls_526-169    H    0.34670980    0.48682992    0.50000000    0.10530000
opls_525-170    H    0.38351987    0.42891975    0.50000000    0.10640000
opls_144-171    H    0.32577998    0.54626006    0.50000000    0.08710000
opls_910-172    H    0.66665994    0.21261986    0.50000000    0.26710000
opls_910-173    H    0.36594008    0.80035993    0.50000000    0.26710000
opls_525-174    H    0.61652984    0.03401988    0.50000000    0.10660000
opls_526-175    H    0.66654008    0.13007997    0.50000000    0.10640000
opls_524-176    H    0.52020993    0.12817012    0.50000000    0.08020000
opls_144-177    H    0.56416989    0.20706995    0.50000000    0.10110000
opls_524-178    H    0.38322997    0.88678973    0.50000000    0.07790000
opls_526-179    H    0.51317017    0.85988007    0.50000000    0.10530000
opls_525-180    H    0.57107979    0.95459982    0.50000000    0.10640000
opls_144-181    H    0.45374017    0.77952003    0.50000000    0.08700000
opls_910-182    H    0.78738000    0.45403982    0.50000000    0.26720000
opls_910-183    H    0.19964016    0.56558000    0.50000000    0.26710000
opls_525-184    H    0.96598001    0.58250983    0.50000000    0.10660000
opls_526-185    H    0.86991984    0.53645984    0.50000000    0.10640000
opls_524-186    H    0.87182991    0.39203996    0.50000000    0.08020000
opls_144-187    H    0.79293006    0.35709988    0.50000000    0.10110000
opls_524-188    H    0.11321009    0.49644004    0.50000000    0.07790000
opls_526-189    H    0.14012003    0.65329001    0.50000000    0.10530000
opls_525-190    H    0.04540015    0.61648005    0.50000000    0.10640000
opls_144-191    H    0.22047986    0.67421991    0.50000000    0.08700000
