#======================================================================
# Crystal Data Generated By AuToFF
#----------------------------------------------------------------------

data_AuToFF_phase_1

_cell_length_a                         36.7274
_cell_length_b                         36.7274
_cell_length_c                         3.8437
_cell_angle_alpha                      90.00
_cell_angle_beta                       90.00
_cell_angle_gamma                      120.00
_symmetry_space_group_name_H-M_alt     'P 1'
_symmetry_space_group_IT_number        1

loop_
_space_group_symop_operation_xyz
   'x, y, z'

loop_
   _atom_site_label
   _atom_site_type_symbol
   _atom_site_fract_x
   _atom_site_fract_y
   _atom_site_fract_z
   _atom_site_charge
opls_141-0    C    0.35712008    0.64782000    0.70295028    0.01780000
opls_261-1    C    0.37570003    0.69028002    0.70222962    -0.02070000
opls_700-2    C    0.38296993    0.62735995    0.67121003    0.06310000
opls_523-3    C    0.36483008    0.58595001    0.54585946    -0.15710000
opls_700-4    C    0.38918994    0.56657998    0.49045971    -0.00090000
opls_521-5    C    0.43248014    0.58958005    0.57648099    0.18780000
opls_522-6    C    0.45038005    0.63043004    0.70746937    -0.15930000
opls_523-7    C    0.42598014    0.64944009    0.75152067    -0.11580000
opls_521-8    C    0.44228004    0.53257002    0.41077087    0.18890000
opls_700-9    C    0.47109005    0.51490999    0.40097042    -0.06450000
opls_166-10    C    0.45624003    0.47129990    0.42540001    0.22530000
opls_523-11    C    0.48525005    0.45700990    0.40471941    -0.25260000
opls_181-12    C    0.40038002    0.40378994    0.64545880    -0.19560000
opls_700-13    C    0.37256010    0.52508012    0.35678903    0.03260000
opls_522-14    C    0.40045994    0.51001010    0.29638890    -0.20400000
opls_700-15    C    0.32669010    0.49452005    0.31046908    0.06910000
opls_145-16    C    0.29977999    0.50442012    0.12471057    -0.11750000
opls_145-17    C    0.25701018    0.47507016    0.09035044    -0.08930000
opls_145-18    C    0.24069008    0.43492001    0.23193017    -0.08650000
opls_145-19    C    0.26714009    0.42408996    0.40833051    -0.08850000
opls_145-20    C    0.30976017    0.45368012    0.44901007    -0.12970000
opls_141-21    C    0.35217998    0.70930013    0.70295028    0.01780000
opls_261-22    C    0.30971995    0.68542006    0.70222962    -0.02070000
opls_700-23    C    0.37263990    0.75560995    0.67121003    0.06310000
opls_523-24    C    0.41405001    0.77888009    0.54585946    -0.15710000
opls_700-25    C    0.43342008    0.82260997    0.49045971    -0.00090000
opls_521-26    C    0.41042005    0.84289993    0.57648099    0.18780000
opls_522-27    C    0.36957010    0.81995016    0.70746937    -0.15930000
opls_523-28    C    0.35056002    0.77654003    0.75152067    -0.11580000
opls_521-29    C    0.46743010    0.90971004    0.41077087    0.18890000
opls_700-30    C    0.48508990    0.95617989    0.40097042    -0.06450000
opls_166-31    C    0.52869992    0.98494004    0.42540001    0.22530000
opls_523-32    C    0.54299007    0.02824013    0.40471941    -0.25260000
opls_181-33    C    0.59620993    0.99659004    0.64545880    -0.19560000
opls_700-34    C    0.47492008    0.84748007    0.35678903    0.03260000
opls_522-35    C    0.48998997    0.89045005    0.29638890    -0.20400000
opls_700-36    C    0.50548019    0.83217017    0.31046908    0.06910000
opls_145-37    C    0.49558002    0.79536018    0.12471057    -0.11750000
opls_145-38    C    0.52492999    0.78194012    0.09035044    -0.08930000
opls_145-39    C    0.56507993    0.80576989    0.23193017    -0.08650000
opls_145-40    C    0.57590996    0.84304990    0.40833051    -0.08850000
opls_145-41    C    0.54632014    0.85608010    0.44901007    -0.12970000
opls_141-42    C    0.29070010    0.64288018    0.70295028    0.01780000
opls_261-43    C    0.31458002    0.62429992    0.70222962    -0.02070000
opls_700-44    C    0.24439017    0.61703010    0.67121003    0.06310000
opls_523-45    C    0.22111991    0.63516990    0.54585946    -0.15710000
opls_700-46    C    0.17738998    0.61081006    0.49045971    -0.00090000
opls_521-47    C    0.15710008    0.56752003    0.57648099    0.18780000
opls_522-48    C    0.18005001    0.54962011    0.70746937    -0.15930000
opls_523-49    C    0.22345984    0.57401988    0.75152067    -0.11580000
opls_521-50    C    0.09028986    0.55771994    0.41077087    0.18890000
opls_700-51    C    0.04382006    0.52891012    0.40097042    -0.06450000
opls_166-52    C    0.01506005    0.54376006    0.42540001    0.22530000
opls_523-53    C    0.97175988    0.51474996    0.40471941    -0.25260000
opls_181-54    C    0.00341005    0.59962002    0.64545880    -0.19560000
opls_700-55    C    0.15251997    0.62744012    0.35678903    0.03260000
opls_522-56    C    0.10954997    0.59954016    0.29638890    -0.20400000
opls_700-57    C    0.16783014    0.67331010    0.31046908    0.06910000
opls_145-58    C    0.20464014    0.70022002    0.12471057    -0.11750000
opls_145-59    C    0.21805998    0.74299003    0.09035044    -0.08930000
opls_145-60    C    0.19423000    0.75931010    0.23193017    -0.08650000
opls_145-61    C    0.15694996    0.73286014    0.40833051    -0.08850000
opls_145-62    C    0.14392012    0.69024009    0.44901007    -0.12970000
opls_141-63    C    0.64287992    0.35218000    0.70295028    0.01780000
opls_261-64    C    0.62429997    0.30971998    0.70222962    -0.02070000
opls_700-65    C    0.61703007    0.37264005    0.67121003    0.06310000
opls_523-66    C    0.63516992    0.41404999    0.54585946    -0.15710000
opls_700-67    C    0.61081006    0.43342002    0.49045971    -0.00090000
opls_521-68    C    0.56751986    0.41041995    0.57648099    0.18780000
opls_522-69    C    0.54961995    0.36956996    0.70746937    -0.15930000
opls_523-70    C    0.57401986    0.35055991    0.75152067    -0.11580000
opls_521-71    C    0.55771996    0.46742998    0.41077087    0.18890000
opls_700-72    C    0.52890995    0.48509001    0.40097042    -0.06450000
opls_166-73    C    0.54375997    0.52870010    0.42540001    0.22530000
opls_523-74    C    0.51474995    0.54299010    0.40471941    -0.25260000
opls_181-75    C    0.59961998    0.59621006    0.64545880    -0.19560000
opls_700-76    C    0.62743990    0.47491988    0.35678903    0.03260000
opls_522-77    C    0.59954006    0.48998990    0.29638890    -0.20400000
opls_700-78    C    0.67330990    0.50547995    0.31046908    0.06910000
opls_145-79    C    0.70022001    0.49557988    0.12471057    -0.11750000
opls_145-80    C    0.74298997    0.52493016    0.09035044    -0.08930000
opls_145-81    C    0.75930992    0.56507999    0.23193017    -0.08650000
opls_145-82    C    0.73285991    0.57591004    0.40833051    -0.08850000
opls_145-83    C    0.69023983    0.54631988    0.44901007    -0.12970000
opls_141-84    C    0.64782002    0.29069987    0.70295028    0.01780000
opls_261-85    C    0.69028005    0.31457994    0.70222962    -0.02070000
opls_700-86    C    0.62736010    0.24439005    0.67121003    0.06310000
opls_523-87    C    0.58594999    0.22111991    0.54585946    -0.15710000
opls_700-88    C    0.56657992    0.17739003    0.49045971    -0.00090000
opls_521-89    C    0.58957995    0.15710007    0.57648099    0.18780000
opls_522-90    C    0.63043006    0.18005015    0.70746937    -0.15930000
opls_523-91    C    0.64943998    0.22345997    0.75152067    -0.11580000
opls_521-92    C    0.53256990    0.09028996    0.41077087    0.18890000
opls_700-93    C    0.51491010    0.04382011    0.40097042    -0.06450000
opls_166-94    C    0.47130008    0.01505996    0.42540001    0.22530000
opls_523-95    C    0.45701009    0.97176018    0.40471941    -0.25260000
opls_181-96    C    0.40379007    0.00340996    0.64545880    -0.19560000
opls_700-97    C    0.52507992    0.15251993    0.35678903    0.03260000
opls_522-98    C    0.51001003    0.10954995    0.29638890    -0.20400000
opls_700-99    C    0.49451996    0.16783015    0.31046908    0.06910000
opls_145-100    C    0.50442013    0.20464013    0.12471057    -0.11750000
opls_145-101    C    0.47507001    0.21805988    0.09035044    -0.08930000
opls_145-102    C    0.43492007    0.19423011    0.23193017    -0.08650000
opls_145-103    C    0.42409004    0.15695010    0.40833051    -0.08850000
opls_145-104    C    0.45367986    0.14391990    0.44901007    -0.12970000
opls_141-105    C    0.70930006    0.35712013    0.70295028    0.01780000
opls_261-106    C    0.68541998    0.37570008    0.70222962    -0.02070000
opls_700-107    C    0.75560983    0.38296990    0.67121003    0.06310000
opls_523-108    C    0.77888009    0.36483010    0.54585946    -0.15710000
opls_700-109    C    0.82261002    0.38918994    0.49045971    -0.00090000
opls_521-110    C    0.84289992    0.43247997    0.57648099    0.18780000
opls_522-111    C    0.81994999    0.45037989    0.70746937    -0.15930000
opls_523-112    C    0.77654016    0.42598012    0.75152067    -0.11580000
opls_521-113    C    0.90971014    0.44228006    0.41077087    0.18890000
opls_700-114    C    0.95617994    0.47108988    0.40097042    -0.06450000
opls_166-115    C    0.98493995    0.45623994    0.42540001    0.22530000
opls_523-116    C    0.02824012    0.48525004    0.40471941    -0.25260000
opls_181-117    C    0.99658995    0.40037998    0.64545880    -0.19560000
opls_700-118    C    0.84748003    0.37255988    0.35678903    0.03260000
opls_522-119    C    0.89045018    0.40046015    0.29638890    -0.20400000
opls_700-120    C    0.83216986    0.32668990    0.31046908    0.06910000
opls_145-121    C    0.79535986    0.29977998    0.12471057    -0.11740000
opls_145-122    C    0.78194002    0.25700997    0.09035044    -0.08930000
opls_145-123    C    0.80577000    0.24068990    0.23193017    -0.08650000
opls_145-124    C    0.84305004    0.26713986    0.40833051    -0.08850000
opls_145-125    C    0.85607988    0.30975991    0.44901007    -0.12970000
opls_520-126    N    0.45696010    0.57183010    0.54161875    -0.29340000
opls_520-127    N    0.42817009    0.88513013    0.54161875    -0.29340000
opls_520-128    N    0.11486997    0.54304009    0.54161875    -0.29340000
opls_520-129    N    0.54303990    0.42816990    0.54161875    -0.29340000
opls_520-130    N    0.57182991    0.11486987    0.54161875    -0.29340000
opls_520-131    N    0.88513003    0.45695991    0.54161875    -0.29340000
opls_179-132    O    0.41294993    0.44332009    0.48173895    -0.20420000
opls_179-133    O    0.55667994    0.96963014    0.48173895    -0.20420000
opls_179-134    O    0.03037002    0.58705009    0.48173895    -0.20420000
opls_179-135    O    0.58705007    0.55667991    0.48173895    -0.20420000
opls_179-136    O    0.44332006    0.03036986    0.48173895    -0.20420000
opls_179-137    O    0.96962998    0.41294991    0.48173895    -0.20420000
opls_526-138    H    0.33175007    0.56977992    0.49077972    0.10880000
opls_525-139    H    0.48338995    0.64733991    0.77546114    0.11920000
opls_526-140    H    0.44046988    0.68125995    0.85153108    0.11710000
opls_526-141    H    0.47396010    0.42367999    0.40036944    0.11650000
opls_185-142    H    0.41916011    0.40811007    0.88388012    0.07400000
opls_185-143    H    0.40310008    0.38176010    0.46422978    0.08990000
opls_185-144    H    0.36691996    0.38934997    0.72478081    0.07440000
opls_525-145    H    0.38902988    0.48021999    0.16536931    0.12310000
opls_146-146    H    0.31164009    0.53461014    0.00366054    0.09850000
opls_146-147    H    0.23669988    0.48323003    0.94722013    0.11770000
opls_146-148    H    0.20765009    0.41209003    0.20239093    0.11920000
opls_146-149    H    0.25450990    0.39298000    0.51907017    0.11960000
opls_146-150    H    0.32951984    0.44494993    0.59463017    0.11880000
opls_526-151    H    0.43021985    0.76196990    0.49077972    0.10880000
opls_525-152    H    0.35265998    0.83605015    0.77546114    0.11920000
opls_526-153    H    0.31874015    0.75921012    0.85153108    0.11710000
opls_526-154    H    0.57632006    0.05028003    0.40036944    0.11650000
opls_185-155    H    0.59189001    0.01105013    0.88388012    0.07400000
opls_185-156    H    0.61824012    0.02134005    0.46422978    0.08990000
opls_185-157    H    0.61064984    0.97756993    0.72478081    0.07440000
opls_525-158    H    0.51977986    0.90880992    0.16536931    0.12310000
opls_146-159    H    0.46539012    0.77703018    0.00366054    0.09840000
opls_146-160    H    0.51677004    0.75347016    0.94722013    0.11770000
opls_146-161    H    0.58791005    0.79556014    0.20239093    0.11920000
opls_146-162    H    0.60702015    0.86153019    0.51907017    0.11960000
opls_146-163    H    0.55505022    0.88457018    0.59463017    0.11880000
opls_526-164    H    0.23803008    0.66825018    0.49077972    0.09840000
opls_525-165    H    0.16395007    0.51660994    0.77546114    0.11920000
opls_526-166    H    0.24078997    0.55952993    0.85153108    0.11710000
opls_526-167    H    0.94972011    0.52603998    0.40036944    0.11650000
opls_185-168    H    0.98895003    0.58084011    0.88388012    0.07400000
opls_185-169    H    0.97865995    0.59690017    0.46422978    0.08990000
opls_185-170    H    0.02242993    0.63308010    0.72478081    0.07440000
opls_525-171    H    0.09118999    0.61097009    0.16536931    0.12310000
opls_146-172    H    0.22296995    0.68836000    0.00366054    0.09840000
opls_146-173    H    0.24652996    0.76330012    0.94722013    0.11770000
opls_146-174    H    0.20444002    0.79235014    0.20239093    0.11920000
opls_146-175    H    0.13847011    0.74549012    0.51907017    0.11960000
opls_146-176    H    0.11542994    0.67047989    0.59463017    0.11880000
opls_526-177    H    0.66824993    0.43022008    0.49077972    0.10880000
opls_525-178    H    0.51661005    0.35266009    0.77546114    0.11920000
opls_526-179    H    0.55953012    0.31874005    0.85153108    0.11710000
opls_526-180    H    0.52603990    0.57632001    0.40036944    0.11650000
opls_185-181    H    0.58083989    0.59188993    0.88388012    0.07400000
opls_185-182    H    0.59689992    0.61823990    0.46422978    0.08990000
opls_185-183    H    0.63308004    0.61065003    0.72478081    0.07440000
opls_525-184    H    0.61097012    0.51978001    0.16536931    0.12310000
opls_146-185    H    0.68836007    0.46539017    0.00366054    0.09840000
opls_146-186    H    0.76330012    0.51676997    0.94722013    0.11770000
opls_146-187    H    0.79234991    0.58790997    0.20239093    0.11920000
opls_146-188    H    0.74549010    0.60702000    0.51907017    0.11960000
opls_146-189    H    0.67048016    0.55505007    0.59463017    0.11880000
opls_526-190    H    0.56978015    0.23803010    0.49077972    0.10880000
opls_525-191    H    0.64734002    0.16394985    0.77546114    0.11920000
opls_526-192    H    0.68125985    0.24078988    0.85153108    0.11710000
opls_526-193    H    0.42367994    0.94971997    0.40036944    0.11650000
opls_185-194    H    0.40810999    0.98894987    0.88388012    0.07400000
opls_185-195    H    0.38175988    0.97865995    0.46422978    0.08990000
opls_185-196    H    0.38935016    0.02243007    0.72478081    0.07440000
opls_525-197    H    0.48022014    0.09119008    0.16536931    0.12310000
opls_146-198    H    0.53461004    0.22297014    0.00366054    0.09840000
opls_146-199    H    0.48323012    0.24653015    0.94722013    0.11770000
opls_146-200    H    0.41208995    0.20443986    0.20239093    0.11920000
opls_146-201    H    0.39298001    0.13847013    0.51907017    0.11960000
opls_146-202    H    0.44494994    0.11543013    0.59463017    0.11880000
opls_526-203    H    0.76197008    0.33175013    0.49077972    0.10880000
opls_525-204    H    0.83604993    0.48339006    0.77546114    0.11920000
opls_526-205    H    0.75921003    0.44047007    0.85153108    0.11710000
opls_526-206    H    0.05027989    0.47396002    0.40036944    0.11650000
opls_185-207    H    0.01104997    0.41915989    0.88388012    0.07400000
opls_185-208    H    0.02134020    0.40310015    0.46422978    0.08990000
opls_185-209    H    0.97757007    0.36691990    0.72478081    0.07440000
opls_525-210    H    0.90881001    0.38902991    0.16536931    0.12310000
opls_146-211    H    0.77703005    0.31164000    0.00366054    0.09840000
opls_146-212    H    0.75347004    0.23669988    0.94722013    0.11770000
opls_146-213    H    0.79555998    0.20764986    0.20239093    0.11920000
opls_146-214    H    0.86152989    0.25450988    0.51907017    0.11960000
opls_146-215    H    0.88457006    0.32952011    0.59463017    0.11880000
