#======================================================================
# Crystal Data Generated By AuToFF
#----------------------------------------------------------------------

data_AuToFF_phase_1

_cell_length_a                         44.1100
_cell_length_b                         44.1100
_cell_length_c                         4.0000
_cell_angle_alpha                      90.00
_cell_angle_beta                       90.00
_cell_angle_gamma                      120.00
_symmetry_space_group_name_H-M_alt     'P 1'
_symmetry_space_group_IT_number        1

loop_
_space_group_symop_operation_xyz
   'x, y, z'

loop_
   _atom_site_label
   _atom_site_type_symbol
   _atom_site_fract_x
   _atom_site_fract_y
   _atom_site_fract_z
   _atom_site_charge
opls_145-0    C    0.68485988    0.31490996    0.82292000    -0.17310000
opls_700-1    C    0.70345992    0.35158001    0.82312000    0.05200000
opls_145-2    C    0.87872002    0.41669010    0.99062000    -0.13000000
opls_145-3    C    0.91442003    0.43487997    0.91625000    -0.11850000
opls_700-4    C    0.92913996    0.46627992    0.73469000    0.06120000
opls_145-5    C    0.90704004    0.47829001    0.61679000    -0.12170000
opls_145-6    C    0.87127001    0.45995014    0.68712000    -0.12450000
opls_700-7    C    0.85662003    0.42908997    0.87944000    -0.02890000
opls_700-8    C    0.96693000    0.48491010    0.64586000    0.02780000
opls_145-9    C    0.98109996    0.46539013    0.50820000    -0.11850000
opls_145-10    C    0.01539014    0.48177008    0.39016000    -0.12370000
opls_700-11    C    0.03691006    0.51820008    0.41300000    0.06390000
opls_145-12    C    0.02328990    0.53777999    0.56055000    -0.17610000
opls_700-13    C    0.98879010    0.52165999    0.68024000    0.11620000
opls_700-14    C    0.07350996    0.53574991    0.28568000    0.06740000
opls_145-15    C    0.09353004    0.51904012    0.30507000    -0.12760000
opls_145-16    C    0.12793991    0.53563996    0.18778000    -0.11940000
opls_700-17    C    0.14333002    0.56955009    0.05502000    -0.04530000
opls_145-18    C    0.12341995    0.58622008    0.03157000    -0.11910000
opls_145-19    C    0.08887983    0.56948988    0.14513000    -0.12790000
opls_234-20    C    0.81843003    0.40865012    0.95253000    0.44580000
opls_142-21    C    0.74195005    0.37016988    0.81356000    0.01670000
opls_234-22    C    0.18045010    0.58766012    0.95315000    0.43970000
opls_142-23    C    0.25813005    0.62589011    0.02740000    0.01270000
opls_145-24    C    0.31380985    0.68371990    0.00084000    -0.16920000
opls_700-25    C    0.29653984    0.64698990    0.00212000    0.05250000
opls_148-26    C    0.97704994    0.54462992    0.84796000    -0.45040000
opls_145-27    C    0.68508993    0.36994998    0.82292000    -0.17310000
opls_700-28    C    0.64841994    0.35188001    0.82312000    0.05200000
opls_145-29    C    0.58330992    0.46202996    0.99062000    -0.13000000
opls_145-30    C    0.56512003    0.47953999    0.91625000    -0.11850000
opls_700-31    C    0.53371998    0.46286006    0.73469000    0.06110000
opls_145-32    C    0.52171003    0.42874992    0.61679000    -0.12170000
opls_145-33    C    0.54004993    0.41131999    0.68712000    -0.12450000
opls_700-34    C    0.57091011    0.42753004    0.87944000    -0.02890000
opls_700-35    C    0.51509006    0.48202007    0.64586000    0.02780000
opls_145-36    C    0.53460996    0.51571005    0.50820000    -0.11850000
opls_145-37    C    0.51823013    0.53362008    0.39016000    -0.12370000
opls_700-38    C    0.48180004    0.51871002    0.41300000    0.06390000
opls_145-39    C    0.46222002    0.48551009    0.56055000    -0.17610000
opls_700-40    C    0.47834006    0.46712991    0.68024000    0.11620000
opls_700-41    C    0.46425003    0.53776010    0.28568000    0.06740000
opls_145-42    C    0.48096008    0.57449010    0.30507000    -0.12760000
opls_145-43    C    0.46435999    0.59230013    0.18778000    -0.11950000
opls_700-44    C    0.43044991    0.57377989    0.05502000    -0.04530000
opls_145-45    C    0.41377995    0.53719989    0.03157000    -0.11910000
opls_145-46    C    0.43051007    0.51939012    0.14513000    -0.12790000
opls_234-47    C    0.59134996    0.40977996    0.95253000    0.44570000
opls_142-48    C    0.62982996    0.37178007    0.81356000    0.01670000
opls_234-49    C    0.41233987    0.59278991    0.95315000    0.43970000
opls_142-50    C    0.37411005    0.63224005    0.02740000    0.01270000
opls_145-51    C    0.31628013    0.63009007    0.00084000    -0.16920000
opls_700-52    C    0.35301014    0.64955008    0.00212000    0.05250000
opls_148-53    C    0.45537008    0.43242004    0.84796000    -0.45040000
opls_145-54    C    0.63004997    0.31514006    0.82292000    -0.17310000
opls_700-55    C    0.64811991    0.29653998    0.82312000    0.05200000
opls_145-56    C    0.53797006    0.12127995    0.99062000    -0.13000000
opls_145-57    C    0.52045994    0.08558004    0.91625000    -0.11850000
opls_700-58    C    0.53714006    0.07086003    0.73469000    0.06110000
opls_145-59    C    0.57124993    0.09296007    0.61679000    -0.12170000
opls_145-60    C    0.58867983    0.12872987    0.68712000    -0.12450000
opls_700-61    C    0.57247009    0.14337999    0.87944000    -0.02890000
opls_700-62    C    0.51798007    0.03307009    0.64586000    0.02780000
opls_145-63    C    0.48428998    0.01890007    0.50820000    -0.11850000
opls_145-64    C    0.46638009    0.98461010    0.39016000    -0.12370000
opls_700-65    C    0.48128990    0.96308990    0.41300000    0.06390000
opls_145-66    C    0.51448985    0.97670992    0.56055000    -0.17610000
opls_700-67    C    0.53287007    0.01121010    0.68024000    0.11620000
opls_700-68    C    0.46224001    0.92649000    0.28568000    0.06740000
opls_145-69    C    0.42551001    0.90647004    0.30507000    -0.12760000
opls_145-70    C    0.40769987    0.87205991    0.18778000    -0.11950000
opls_700-71    C    0.42622007    0.85667001    0.05502000    -0.04530000
opls_145-72    C    0.46280010    0.87658002    0.03157000    -0.11910000
opls_145-73    C    0.48061010    0.91111999    0.14513000    -0.12780000
opls_234-74    C    0.59022001    0.18156992    0.95253000    0.44570000
opls_142-75    C    0.62821999    0.25805005    0.81356000    0.01670000
opls_234-76    C    0.40721003    0.81954996    0.95315000    0.43980000
opls_142-77    C    0.36776004    0.74187011    0.02740000    0.01270000
opls_145-78    C    0.36991002    0.68619003    0.00084000    -0.16920000
opls_700-79    C    0.35045003    0.70346002    0.00212000    0.05260000
opls_148-80    C    0.56757998    0.02295003    0.84796000    -0.45030000
opls_236-81    O    0.80623004    0.37923994    0.06829000    -0.40060000
opls_236-82    O    0.19163016    0.57134013    0.80086000    -0.39970000
opls_236-83    O    0.62076002    0.42698999    0.06829000    -0.40060000
opls_236-84    O    0.42866003    0.62028990    0.80086000    -0.39970000
opls_236-85    O    0.57300995    0.19377006    0.06829000    -0.40050000
opls_236-86    O    0.37971004    0.80836997    0.80086000    -0.39950000
opls_238-87    N    0.79699005    0.42253009    0.89894000    -0.28150000
opls_750-88    N    0.76013996    0.40278002    0.90350000    -0.18600000
opls_238-89    N    0.20212999    0.62227994    0.03350000    -0.28150000
opls_750-90    N    0.23879000    0.64026012    0.99474000    -0.18610000
opls_238-91    N    0.57747003    0.37445989    0.89894000    -0.28140000
opls_750-92    N    0.59722004    0.35736006    0.90350000    -0.18610000
opls_238-93    N    0.37772005    0.57984999    0.03350000    -0.28150000
opls_750-94    N    0.35973990    0.59852991    0.99474000    -0.18610000
opls_238-95    N    0.62553992    0.20301002    0.89894000    -0.28150000
opls_750-96    N    0.64264000    0.23985992    0.90350000    -0.18600000
opls_238-97    N    0.42014995    0.79787007    0.03350000    -0.28150000
opls_750-98    N    0.40147009    0.76120997    0.99474000    -0.18610000
opls_146-99    H    0.69906006    0.30073994    0.81914000    0.11330000
opls_146-100    H    0.86842993    0.39280002    0.13520000    0.11420000
opls_146-101    H    0.93052994    0.42429997    0.00046000    0.11480000
opls_146-102    H    0.91728004    0.50149004    0.46292000    0.11480000
opls_146-103    H    0.85529993    0.46967988    0.57988000    0.11860000
opls_146-104    H    0.96521990    0.43727000    0.48261000    0.11830000
opls_146-105    H    0.02468012    0.46581003    0.27315000    0.11810000
opls_146-106    H    0.03973998    0.56582003    0.58901000    0.11570000
opls_146-107    H    0.08299005    0.49345007    0.41847000    0.11810000
opls_146-108    H    0.14295991    0.52241993    0.21065000    0.11220000
opls_146-109    H    0.13440991    0.61204993    0.92226000    0.11590000
opls_146-110    H    0.07416010    0.58294001    0.11922000    0.11630000
opls_910-111    H    0.80796998    0.44953008    0.87396000    0.26520000
opls_144-112    H    0.75469990    0.35622002    0.72317000    0.09830000
opls_910-113    H    0.19128994    0.63654995    0.13472000    0.26070000
opls_144-114    H    0.24656000    0.59855007    0.09423000    0.08700000
opls_146-115    H    0.29881001    0.69707003    0.00818000    0.11360000
opls_702-116    H    0.95348998    0.52948007    0.00405000    0.10130000
opls_702-117    H    0.97163000    0.55943004    0.65563000    0.16800000
opls_702-118    H    0.99795014    0.56361010    0.01649000    0.16790000
opls_146-119    H    0.69926004    0.39832012    0.81914000    0.11330000
opls_146-120    H    0.60719999    0.47563009    0.13520000    0.11420000
opls_146-121    H    0.57569992    0.50623004    0.00046000    0.11490000
opls_146-122    H    0.49851011    0.41579010    0.46292000    0.11480000
opls_146-123    H    0.53032008    0.38561999    0.57988000    0.11860000
opls_146-124    H    0.56272992    0.52794998    0.48261000    0.11830000
opls_146-125    H    0.53418998    0.55887010    0.27315000    0.11810000
opls_146-126    H    0.43417985    0.47391989    0.58901000    0.11570000
opls_146-127    H    0.50655007    0.58953995    0.41847000    0.11810000
opls_146-128    H    0.47757986    0.62053990    0.21065000    0.11210000
opls_146-129    H    0.38794989    0.52235999    0.92226000    0.11590000
opls_146-130    H    0.41706000    0.49121998    0.11922000    0.11940000
opls_910-131    H    0.55047000    0.35843989    0.87396000    0.26520000
opls_144-132    H    0.64378005    0.39848007    0.72317000    0.09830000
opls_910-133    H    0.36345004    0.55474003    0.13472000    0.26070000
opls_144-134    H    0.40145005    0.64801005    0.09423000    0.08700000
opls_146-135    H    0.30293012    0.60174009    0.00818000    0.11370000
opls_702-136    H    0.47052004    0.42400992    0.00405000    0.10130000
opls_702-137    H    0.44057001    0.41220009    0.65563000    0.16800000
opls_702-138    H    0.43638986    0.43433992    0.01649000    0.16780000
opls_146-139    H    0.60167990    0.30093994    0.81914000    0.11340000
opls_146-140    H    0.52436985    0.13156990    0.13520000    0.11420000
opls_146-141    H    0.49376991    0.06946999    0.00046000    0.11480000
opls_146-142    H    0.58420998    0.08272012    0.46292000    0.11480000
opls_146-143    H    0.61437999    0.14470013    0.57988000    0.11860000
opls_146-144    H    0.47204995    0.03478002    0.48261000    0.11830000
opls_146-145    H    0.44113003    0.97532014    0.27315000    0.11810000
opls_146-146    H    0.52607994    0.96026008    0.58901000    0.11580000
opls_146-147    H    0.41046011    0.91700999    0.41847000    0.11810000
opls_146-148    H    0.37945987    0.85703990    0.21065000    0.11210000
opls_146-149    H    0.47763997    0.86559008    0.92226000    0.11590000
opls_146-150    H    0.50877990    0.92584000    0.11922000    0.11630000
opls_910-151    H    0.64156001    0.19203003    0.87396000    0.26520000
opls_144-152    H    0.60152006    0.24529992    0.72317000    0.09830000
opls_910-153    H    0.44526002    0.80871002    0.13472000    0.26080000
opls_144-154    H    0.35198995    0.75343989    0.09423000    0.08700000
opls_146-155    H    0.39825987    0.70118988    0.00818000    0.11360000
opls_702-156    H    0.57598998    0.04651001    0.00405000    0.10130000
opls_702-157    H    0.58779999    0.02836987    0.65563000    0.16800000
opls_702-158    H    0.56565999    0.00204998    0.01649000    0.16780000
