#======================================================================
# Crystal Data Generated By AuToFF
#----------------------------------------------------------------------

data_AuToFF_phase_1

_cell_length_a                         38.9000
_cell_length_b                         38.9000
_cell_length_c                         5.2000
_cell_angle_alpha                      90.00
_cell_angle_beta                       90.00
_cell_angle_gamma                      120.00
_symmetry_space_group_name_H-M_alt     'P 1'
_symmetry_space_group_IT_number        1

loop_
_space_group_symop_operation_xyz
   'x, y, z'

loop_
   _atom_site_label
   _atom_site_type_symbol
   _atom_site_fract_x
   _atom_site_fract_y
   _atom_site_fract_z
   _atom_site_charge
opls_700-0    C    0.03415991    0.47795991    0.47980000    0.05830000
opls_145-1    C    0.06300011    0.49614006    0.67398077    -0.22420000
opls_145-2    C    0.09741003    0.49288998    0.68041923    -0.23260000
opls_145-3    C    0.10413007    0.47128996    0.49005000    0.17940000
opls_145-4    C    0.07552997    0.45267999    0.29471923    -0.23160000
opls_145-5    C    0.04099985    0.45587990    0.29059038    -0.19930000
opls_166-6    C    0.26301997    0.48283993    0.28013077    0.21930000
opls_145-7    C    0.22806003    0.48372006    0.22614038    -0.25390000
opls_700-8    C    0.19400988    0.46334984    0.38214038    0.00610000
opls_166-9    C    0.19572018    0.44114011    0.59213077    0.23730000
opls_145-10    C    0.23053992    0.43993999    0.64460962    -0.22770000
opls_700-11    C    0.26506994    0.46075992    0.49148077    -0.00990000
opls_142-12    C    0.29901012    0.45814003    0.55755000    0.09230000
opls_142-13    C    0.16000990    0.46585990    0.32300000    0.09260000
opls_145-14    C    0.36839997    0.47699994    0.45534038    0.17660000
opls_145-15    C    0.37636007    0.45590009    0.64460962    -0.23160000
opls_145-16    C    0.41354993    0.45789009    0.65380962    -0.19940000
opls_700-17    C    0.44399993    0.48090989    0.47506923    0.06360000
opls_145-18    C    0.43551993    0.50201004    0.28915962    -0.22420000
opls_145-19    C    0.39857996    0.50031005    0.27900962    -0.23250000
opls_700-20    C    0.48109989    0.48183989    0.47785962    -0.00240000
opls_700-21    C    0.52204007    0.55619993    0.47980000    0.05830000
opls_145-22    C    0.50386007    0.56685998    0.67398077    -0.22420000
opls_145-23    C    0.50710979    0.60451984    0.68041923    -0.23260000
opls_145-24    C    0.52870996    0.63283998    0.49005000    0.17940000
opls_145-25    C    0.54732006    0.62284989    0.29471923    -0.23150000
opls_145-26    C    0.54411989    0.58511998    0.29059038    -0.19940000
opls_166-27    C    0.51715995    0.78018006    0.28013077    0.21930000
opls_145-28    C    0.51627993    0.74433982    0.22614038    -0.25390000
opls_700-29    C    0.53665007    0.73066003    0.38214038    0.00610000
opls_166-30    C    0.55885984    0.75457984    0.59213077    0.23730000
opls_145-31    C    0.56005988    0.79059997    0.64460962    -0.22770000
opls_700-32    C    0.53924011    0.80431003    0.49148077    -0.00990000
opls_142-33    C    0.54185984    0.84086981    0.55755000    0.09230000
opls_142-34    C    0.53413995    0.69414982    0.32300000    0.09260000
opls_145-35    C    0.52299999    0.89139997    0.45534038    0.17660000
opls_145-36    C    0.54409984    0.92045984    0.64460962    -0.23160000
opls_145-37    C    0.54211000    0.95566010    0.65380962    -0.19940000
opls_700-38    C    0.51908996    0.96308995    0.47506923    0.06360000
opls_145-39    C    0.49798998    0.93351003    0.28915962    -0.22420000
opls_145-40    C    0.49969001    0.89827000    0.27900962    -0.23260000
opls_700-41    C    0.51816007    0.99925998    0.47785962    -0.00240000
opls_700-42    C    0.44379988    0.96583986    0.47980000    0.05830000
opls_145-43    C    0.43314008    0.93699996    0.67398077    -0.22420000
opls_145-44    C    0.39548003    0.90258988    0.68041923    -0.23260000
opls_145-45    C    0.36715997    0.89587006    0.49005000    0.17940000
opls_145-46    C    0.37714982    0.92446982    0.29471923    -0.23160000
opls_145-47    C    0.41487986    0.95899982    0.29059038    -0.19940000
opls_166-48    C    0.21982008    0.73698001    0.28013077    0.21930000
opls_145-49    C    0.25565989    0.77193983    0.22614038    -0.25390000
opls_700-50    C    0.26933991    0.80598984    0.38214038    0.00610000
opls_166-51    C    0.24541997    0.80428005    0.59213077    0.23730000
opls_145-52    C    0.20939994    0.76946004    0.64460962    -0.22770000
opls_700-53    C    0.19568996    0.73493005    0.49148077    -0.00990000
opls_142-54    C    0.15912989    0.70098987    0.55755000    0.09230000
opls_142-55    C    0.30585000    0.83998998    0.32300000    0.09260000
opls_145-56    C    0.10860004    0.63160009    0.45534038    0.17660000
opls_145-57    C    0.07954009    0.62364007    0.64460962    -0.23160000
opls_145-58    C    0.04433996    0.58645011    0.65380962    -0.19940000
opls_700-59    C    0.03690995    0.55599986    0.47506923    0.06360000
opls_145-60    C    0.06648984    0.56447993    0.28915962    -0.22420000
opls_145-61    C    0.10173003    0.60141996    0.27900962    -0.23260000
opls_700-62    C    0.00073989    0.51889983    0.47785962    -0.00240000
opls_700-63    C    0.96584009    0.52204009    0.47980000    0.05830000
opls_145-64    C    0.93699989    0.50385994    0.67398077    -0.22420000
opls_145-65    C    0.90258997    0.50711002    0.68041923    -0.23260000
opls_145-66    C    0.89586993    0.52871004    0.49005000    0.17940000
opls_145-67    C    0.92447003    0.54732001    0.29471923    -0.23160000
opls_145-68    C    0.95900015    0.54412010    0.29059038    -0.19940000
opls_166-69    C    0.73698003    0.51716007    0.28013077    0.21930000
opls_145-70    C    0.77193997    0.51627994    0.22614038    -0.25390000
opls_700-71    C    0.80598997    0.53664987    0.38214038    0.00610000
opls_166-72    C    0.80427982    0.55885989    0.59213077    0.23730000
opls_145-73    C    0.76946008    0.56006001    0.64460962    -0.22770000
opls_700-74    C    0.73493006    0.53924008    0.49148077    -0.00990000
opls_142-75    C    0.70098988    0.54185997    0.55755000    0.09230000
opls_142-76    C    0.83999010    0.53414010    0.32300000    0.09260000
opls_145-77    C    0.63160003    0.52300006    0.45534038    0.17660000
opls_145-78    C    0.62363993    0.54409991    0.64460962    -0.23160000
opls_145-79    C    0.58645007    0.54210991    0.65380962    -0.19940000
opls_700-80    C    0.55600007    0.51909011    0.47506923    0.06360000
opls_145-81    C    0.56448007    0.49798996    0.28915962    -0.22420000
opls_145-82    C    0.60142004    0.49968995    0.27900962    -0.23260000
opls_700-83    C    0.51890011    0.51816011    0.47785962    -0.00240000
opls_700-84    C    0.47795993    0.44380007    0.47980000    0.05830000
opls_145-85    C    0.49613993    0.43314002    0.67398077    -0.22420000
opls_145-86    C    0.49288981    0.39547987    0.68041923    -0.23260000
opls_145-87    C    0.47129004    0.36716002    0.49005000    0.17940000
opls_145-88    C    0.45267994    0.37715011    0.29471923    -0.23160000
opls_145-89    C    0.45588011    0.41488002    0.29059038    -0.19940000
opls_166-90    C    0.48284005    0.21981994    0.28013077    0.21930000
opls_145-91    C    0.48371992    0.25565989    0.22614038    -0.25390000
opls_700-92    C    0.46334993    0.26933997    0.38214038    0.00610000
opls_166-93    C    0.44114001    0.24541986    0.59213077    0.23730000
opls_145-94    C    0.43994012    0.20940003    0.64460962    -0.22770000
opls_700-95    C    0.46075989    0.19568997    0.49148077    -0.00990000
opls_142-96    C    0.45814001    0.15912990    0.55755000    0.09230000
opls_142-97    C    0.46585990    0.30584988    0.32300000    0.09260000
opls_145-98    C    0.47700001    0.10860003    0.45534038    0.17660000
opls_145-99    C    0.45590001    0.07953987    0.64460962    -0.23160000
opls_145-100    C    0.45789000    0.04433990    0.65380962    -0.19940000
opls_700-101    C    0.48091004    0.03691005    0.47506923    0.06360000
opls_145-102    C    0.50201002    0.06648997    0.28915962    -0.22420000
opls_145-103    C    0.50030999    0.10173000    0.27900962    -0.23260000
opls_700-104    C    0.48183993    0.00074002    0.47785962    -0.00240000
opls_700-105    C    0.55620012    0.03416014    0.47980000    0.05830000
opls_145-106    C    0.56685992    0.06300004    0.67398077    -0.22420000
opls_145-107    C    0.60451997    0.09741012    0.68041923    -0.23260000
opls_145-108    C    0.63284003    0.10412994    0.49005000    0.17940000
opls_145-109    C    0.62285003    0.07552988    0.29471923    -0.23160000
opls_145-110    C    0.58511999    0.04099988    0.29059038    -0.19930000
opls_166-111    C    0.78017992    0.26301999    0.28013077    0.21930000
opls_145-112    C    0.74433996    0.22805987    0.22614038    -0.25390000
opls_700-113    C    0.73065995    0.19400987    0.38214038    0.00610000
opls_166-114    C    0.75458003    0.19571995    0.59213077    0.23730000
opls_145-115    C    0.79060006    0.23053996    0.64460962    -0.22770000
opls_700-116    C    0.80431004    0.26506995    0.49148077    -0.00990000
opls_142-117    C    0.84086996    0.29900984    0.55755000    0.09230000
opls_142-118    C    0.69415000    0.16001002    0.32300000    0.09260000
opls_145-119    C    0.89139996    0.36839991    0.45534038    0.17660000
opls_145-120    C    0.92045991    0.37635993    0.64460962    -0.23160000
opls_145-121    C    0.95566004    0.41354989    0.65380962    -0.19940000
opls_700-122    C    0.96308990    0.44399985    0.47506923    0.06370000
opls_145-123    C    0.93350991    0.43552007    0.28915962    -0.22420000
opls_145-124    C    0.89826997    0.39858004    0.27900962    -0.23260000
opls_700-125    C    0.99925996    0.48109987    0.47785962    -0.00240000
opls_167-126    O    0.16410990    0.41992983    0.74694038    -0.47160000
opls_167-127    O    0.29377984    0.50423989    0.11971923    -0.49820000
opls_167-128    O    0.58006986    0.74417982    0.74694038    -0.47160000
opls_167-129    O    0.49575995    0.78953996    0.11971923    -0.49820000
opls_167-130    O    0.25582009    0.83589005    0.74694038    -0.47170000
opls_167-131    O    0.21046006    0.70621986    0.11971923    -0.49820000
opls_167-132    O    0.83588995    0.58006987    0.74694038    -0.47170000
opls_167-133    O    0.70622016    0.49576011    0.11971923    -0.49820000
opls_167-134    O    0.41992999    0.25581988    0.74694038    -0.47170000
opls_167-135    O    0.50424005    0.21046004    0.11971923    -0.49810000
opls_167-136    O    0.74417991    0.16410995    0.74694038    -0.47160000
opls_167-137    O    0.78954005    0.29377985    0.11971923    -0.49810000
opls_750-138    N    0.13772016    0.46925009    0.50968077    -0.32750000
opls_750-139    N    0.33332998    0.47654993    0.42540962    -0.34780000
opls_750-140    N    0.53074994    0.66847006    0.50968077    -0.32750000
opls_750-141    N    0.52344992    0.85678004    0.42540962    -0.34790000
opls_750-142    N    0.33152990    0.86227985    0.50968077    -0.32750000
opls_750-143    N    0.14322011    0.66667003    0.42540962    -0.34790000
opls_750-144    N    0.86227984    0.53074991    0.50968077    -0.32740000
opls_750-145    N    0.66667002    0.52345007    0.42540962    -0.34790000
opls_750-146    N    0.46925006    0.33152994    0.50968077    -0.32750000
opls_750-147    N    0.47655008    0.14321996    0.42540962    -0.34790000
opls_750-148    N    0.66846995    0.13771985    0.50968077    -0.32750000
opls_750-149    N    0.85677989    0.33332997    0.42540962    -0.35020000
opls_146-150    H    0.05895005    0.51194996    0.81263077    0.20190000
opls_146-151    H    0.11781999    0.50661994    0.82373077    0.20190000
opls_146-152    H    0.07959001    0.43638001    0.15660000    0.20190000
opls_146-153    H    0.02072004    0.44184985    0.14785000    0.20190000
opls_146-154    H    0.22786002    0.49983006    0.07128077    0.20190000
opls_146-155    H    0.23026999    0.42353998    0.79899038    0.20190000
opls_144-156    H    0.29727995    0.44133008    0.71328077    0.09850000
opls_144-157    H    0.15325000    0.46694009    0.13430962    0.09850000
opls_168-158    H    0.14019011    0.42134011    0.71364038    0.29120000
opls_168-159    H    0.31859994    0.50477984    0.15213077    0.28210000
opls_146-160    H    0.35512990    0.43880993    0.77590000    0.20190000
opls_146-161    H    0.41815991    0.44208999    0.79246923    0.20210000
opls_146-162    H    0.45637007    0.51883987    0.15825962    0.20180000
opls_146-163    H    0.39371987    0.51611995    0.14080000    0.20190000
opls_146-164    H    0.48805014    0.54700002    0.81263077    0.20180000
opls_146-165    H    0.49337989    0.61119988    0.82373077    0.20190000
opls_146-166    H    0.56361992    0.64321002    0.15660000    0.20200000
opls_146-167    H    0.55814993    0.57887005    0.14785000    0.20190000
opls_146-168    H    0.50017003    0.72803004    0.07128077    0.20190000
opls_146-169    H    0.57646004    0.80672986    0.79899038    0.20190000
opls_144-170    H    0.55867015    0.85595008    0.71328077    0.09850000
opls_144-171    H    0.53305990    0.68631003    0.13430962    0.09850000
opls_168-172    H    0.57865997    0.71885003    0.71364038    0.29120000
opls_168-173    H    0.49521994    0.81381984    0.15213077    0.28210000
opls_146-174    H    0.56119000    0.91631984    0.77590000    0.20190000
opls_146-175    H    0.55791011    0.97607009    0.79246923    0.20210000
opls_146-176    H    0.48116002    0.93752981    0.15825962    0.20180000
opls_146-177    H    0.48387993    0.87759997    0.14080000    0.20190000
opls_146-178    H    0.45300007    0.94105002    0.81263077    0.20180000
opls_146-179    H    0.38879997    0.88217988    0.82373077    0.20190000
opls_146-180    H    0.35679007    0.92040997    0.15660000    0.20190000
opls_146-181    H    0.42112988    0.97927981    0.14785000    0.20200000
opls_146-182    H    0.27196995    0.77213990    0.07128077    0.20190000
opls_146-183    H    0.19326982    0.76972987    0.79899038    0.20190000
opls_144-184    H    0.14404989    0.70271984    0.71328077    0.09850000
opls_144-185    H    0.31368985    0.84674987    0.13430962    0.09860000
opls_168-186    H    0.28114992    0.85980986    0.71364038    0.29120000
opls_168-187    H    0.18617996    0.68140003    0.15213077    0.28220000
opls_146-188    H    0.08367996    0.64486994    0.77590000    0.20190000
opls_146-189    H    0.02392998    0.58183992    0.79246923    0.20210000
opls_146-190    H    0.06247002    0.54363002    0.15825962    0.20180000
opls_146-191    H    0.12239994    0.60628009    0.14080000    0.20190000
opls_146-192    H    0.94104995    0.48805004    0.81263077    0.20180000
opls_146-193    H    0.88218001    0.49338006    0.82373077    0.20190000
opls_146-194    H    0.92040999    0.56361999    0.15660000    0.20200000
opls_146-195    H    0.97927981    0.55814986    0.14785000    0.20190000
opls_146-196    H    0.77213998    0.50016994    0.07128077    0.20190000
opls_146-197    H    0.76973001    0.57646002    0.79899038    0.20190000
opls_144-198    H    0.70272005    0.55866992    0.71328077    0.09850000
opls_144-199    H    0.84675000    0.53305991    0.13430962    0.09850000
opls_168-200    H    0.85980989    0.57865989    0.71364038    0.29120000
opls_168-201    H    0.68139991    0.49521987    0.15213077    0.28210000
opls_146-202    H    0.64487010    0.56119007    0.77590000    0.20190000
opls_146-203    H    0.58184009    0.55791001    0.79246923    0.20220000
opls_146-204    H    0.54363004    0.48115983    0.15825962    0.20180000
opls_146-205    H    0.60628013    0.48388005    0.14080000    0.20190000
opls_146-206    H    0.51195012    0.45299998    0.81263077    0.20180000
opls_146-207    H    0.50662011    0.38880012    0.82373077    0.20190000
opls_146-208    H    0.43638008    0.35678998    0.15660000    0.20200000
opls_146-209    H    0.44185007    0.42112995    0.14785000    0.20190000
opls_146-210    H    0.49982997    0.27196996    0.07128077    0.20190000
opls_146-211    H    0.42353981    0.19326985    0.79899038    0.20190000
opls_144-212    H    0.44132985    0.14404992    0.71328077    0.09850000
opls_144-213    H    0.46694010    0.31368997    0.13430962    0.09850000
opls_168-214    H    0.42134003    0.28114997    0.71364038    0.29120000
opls_168-215    H    0.50477991    0.18617987    0.15213077    0.28210000
opls_146-216    H    0.43880986    0.08367987    0.77590000    0.20200000
opls_146-217    H    0.44208989    0.02392991    0.79246923    0.20210000
opls_146-218    H    0.51883983    0.06246989    0.15825962    0.20180000
opls_146-219    H    0.51612007    0.12240003    0.14080000    0.20190000
opls_146-220    H    0.54699993    0.05894998    0.81263077    0.20180000
opls_146-221    H    0.61120003    0.11782012    0.82373077    0.20190000
opls_146-222    H    0.64320993    0.07959003    0.15660000    0.20190000
opls_146-223    H    0.57886997    0.02071990    0.14785000    0.20190000
opls_146-224    H    0.72803005    0.22786010    0.07128077    0.20190000
opls_146-225    H    0.80673018    0.23027013    0.79899038    0.20200000
opls_144-226    H    0.85594996    0.29727986    0.71328077    0.09850000
opls_144-227    H    0.68631015    0.15325013    0.13430962    0.09850000
opls_168-228    H    0.71885008    0.14019014    0.71364038    0.29120000
opls_168-229    H    0.81382004    0.31859997    0.15213077    0.28220000
opls_146-230    H    0.91632004    0.35513006    0.77590000    0.20190000
opls_146-231    H    0.97607002    0.41816008    0.79246923    0.20210000
opls_146-232    H    0.93752998    0.45636998    0.15825962    0.20180000
opls_146-233    H    0.87760006    0.39371991    0.14080000    0.20190000
