#======================================================================
# Crystal Data Generated By AuToFF
#----------------------------------------------------------------------

data_AuToFF_phase_1

_cell_length_a                         25.0645
_cell_length_b                         25.0645
_cell_length_c                         8.5978
_cell_angle_alpha                      90.00
_cell_angle_beta                       90.00
_cell_angle_gamma                      120.00
_symmetry_space_group_name_H-M_alt     'P 1'
_symmetry_space_group_IT_number        1

loop_
_space_group_symop_operation_xyz
   'x, y, z'

loop_
   _atom_site_label
   _atom_site_type_symbol
   _atom_site_fract_x
   _atom_site_fract_y
   _atom_site_fract_z
   _atom_site_charge
opls_166-0    C    0.55638015    0.38825992    0.60202959    0.18360000
opls_166-1    C    0.61174030    0.16812023    0.60202959    0.18360000
opls_166-2    C    0.83187995    0.44361986    0.60202959    0.18360000
opls_166-3    C    0.38826009    0.55638014    0.39797972    0.18360000
opls_166-4    C    0.16812024    0.61174008    0.39797972    0.18370000
opls_166-5    C    0.44362030    0.83188023    0.39797972    0.18360000
opls_166-6    C    0.44361985    0.61174008    0.39797972    0.18360000
opls_166-7    C    0.38825993    0.83188023    0.39797972    0.18360000
opls_166-8    C    0.16812005    0.55638014    0.39797972    0.18360000
opls_166-9    C    0.61173991    0.44361986    0.60202959    0.18360000
opls_166-10    C    0.83187976    0.38825992    0.60202959    0.18360000
opls_166-11    C    0.55637993    0.16812023    0.60202959    0.18360000
opls_145-12    C    0.54748030    0.34038023    0.50764963    -0.22840000
opls_145-13    C    0.65962005    0.20709981    0.50764963    -0.22840000
opls_145-14    C    0.79290005    0.45251996    0.50764963    -0.22830000
opls_145-15    C    0.34038009    0.54748004    0.49235037    -0.22840000
opls_145-16    C    0.20710031    0.65962023    0.49235037    -0.22840000
opls_145-17    C    0.45252023    0.79290019    0.49235037    -0.22830000
opls_145-18    C    0.45251993    0.65962023    0.49235037    -0.22840000
opls_145-19    C    0.34037995    0.79290019    0.49235037    -0.22840000
opls_145-20    C    0.20709995    0.54748004    0.49235037    -0.22840000
opls_145-21    C    0.65961991    0.45251996    0.50764963    -0.22840000
opls_145-22    C    0.79289992    0.34038023    0.50764963    -0.22840000
opls_145-23    C    0.54747977    0.20709981    0.50764963    -0.22830000
opls_700-24    C    0.59625003    0.34774991    0.41351043    0.08010000
opls_700-25    C    0.65225010    0.24849987    0.41351043    0.08010000
opls_700-26    C    0.75150027    0.40375021    0.41351043    0.08010000
opls_700-27    C    0.34775029    0.59625025    0.58648957    0.08010000
opls_700-28    C    0.24850012    0.65225009    0.58648957    0.08010000
opls_700-29    C    0.40375022    0.75150013    0.58648957    0.08010000
opls_700-30    C    0.40374997    0.65225009    0.58648957    0.08010000
opls_700-31    C    0.34774990    0.75150013    0.58648957    0.08010000
opls_700-32    C    0.24849996    0.59625025    0.58648957    0.08010000
opls_700-33    C    0.65224994    0.40375021    0.41351043    0.08010000
opls_700-34    C    0.75149988    0.34774991    0.41351043    0.08010000
opls_700-35    C    0.59624978    0.24849987    0.41351043    0.08020000
opls_145-36    C    0.46388020    0.44021028    0.94625020    -0.05200000
opls_145-37    C    0.55979002    0.02366988    0.94625020    -0.05200000
opls_145-38    C    0.97633002    0.53612030    0.94625020    -0.05200000
opls_145-39    C    0.44020994    0.46388016    0.05374980    -0.05200000
opls_145-40    C    0.02367015    0.55979018    0.05374980    -0.05200000
opls_145-41    C    0.53612014    0.97633012    0.05374980    -0.05200000
opls_145-42    C    0.53612003    0.55979018    0.05374980    -0.05200000
opls_145-43    C    0.44020998    0.97633012    0.05374980    -0.05200000
opls_145-44    C    0.02367021    0.46388016    0.05374980    -0.05200000
opls_145-45    C    0.55979029    0.53612030    0.94625020    -0.05200000
opls_145-46    C    0.97633008    0.44021028    0.94625020    -0.05200000
opls_145-47    C    0.46387986    0.02366988    0.94625020    -0.05200000
opls_701-48    C    0.58634985    0.29318006    0.31918979    -0.23880000
opls_701-49    C    0.70682993    0.29316992    0.31918979    -0.23130000
opls_701-50    C    0.70683020    0.41365002    0.31918979    -0.23880000
opls_701-51    C    0.29318018    0.58634998    0.68081021    -0.23880000
opls_701-52    C    0.29318004    0.70683008    0.68081021    -0.23130000
opls_701-53    C    0.41365003    0.70683008    0.68081021    -0.23880000
opls_145-54    C    0.52400014    0.47600004    0.89071972    -0.24660000
opls_145-55    C    0.52399996    0.04799993    0.89071972    -0.24660000
opls_145-56    C    0.95199990    0.47600004    0.89071972    -0.24660000
opls_145-57    C    0.47599986    0.52399996    0.10928028    -0.24660000
opls_145-58    C    0.04800010    0.52399996    0.10928028    -0.24660000
opls_145-59    C    0.47600004    0.95200007    0.10928028    -0.24660000
opls_166-60    C    0.55638015    0.38825992    0.10202959    0.18360000
opls_166-61    C    0.61174030    0.16812023    0.10202959    0.18360000
opls_166-62    C    0.83187995    0.44361986    0.10202959    0.18360000
opls_166-63    C    0.38826009    0.55638014    0.89797972    0.18360000
opls_166-64    C    0.16812024    0.61174008    0.89797972    0.18360000
opls_166-65    C    0.44362030    0.83188023    0.89797972    0.18360000
opls_166-66    C    0.44361985    0.61174008    0.89797972    0.18360000
opls_166-67    C    0.38825993    0.83188023    0.89797972    0.18370000
opls_166-68    C    0.16812005    0.55638014    0.89797972    0.18360000
opls_166-69    C    0.61173991    0.44361986    0.10202959    0.18360000
opls_166-70    C    0.83187976    0.38825992    0.10202959    0.18360000
opls_166-71    C    0.55637993    0.16812023    0.10202959    0.18360000
opls_145-72    C    0.54748030    0.34038023    0.00764963    -0.22840000
opls_145-73    C    0.65962005    0.20709981    0.00764963    -0.22840000
opls_145-74    C    0.79290005    0.45251996    0.00764963    -0.22840000
opls_145-75    C    0.34038009    0.54748004    0.99235037    -0.22840000
opls_145-76    C    0.20710031    0.65962023    0.99235037    -0.22840000
opls_145-77    C    0.45252023    0.79290019    0.99235037    -0.22840000
opls_145-78    C    0.45251993    0.65962023    0.99235037    -0.22840000
opls_145-79    C    0.34037995    0.79290019    0.99235037    -0.22840000
opls_145-80    C    0.20709995    0.54748004    0.99235037    -0.22840000
opls_145-81    C    0.65961991    0.45251996    0.00764963    -0.22840000
opls_145-82    C    0.79289992    0.34038023    0.00764963    -0.22840000
opls_145-83    C    0.54747977    0.20709981    0.00764963    -0.22840000
opls_700-84    C    0.59625003    0.34774991    0.91351043    0.08010000
opls_700-85    C    0.65225010    0.24849987    0.91351043    0.08010000
opls_700-86    C    0.75150027    0.40375021    0.91351043    0.08010000
opls_700-87    C    0.34775029    0.59625025    0.08648957    0.08010000
opls_700-88    C    0.24850012    0.65225009    0.08648957    0.08010000
opls_700-89    C    0.40375022    0.75150013    0.08648957    0.08010000
opls_700-90    C    0.40374997    0.65225009    0.08648957    0.08010000
opls_700-91    C    0.34774990    0.75150013    0.08648957    0.08010000
opls_700-92    C    0.24849996    0.59625025    0.08648957    0.08010000
opls_700-93    C    0.65224994    0.40375021    0.91351043    0.08010000
opls_700-94    C    0.75149988    0.34774991    0.91351043    0.08010000
opls_700-95    C    0.59624978    0.24849987    0.91351043    0.08010000
opls_145-96    C    0.46388020    0.44021028    0.44625020    -0.05200000
opls_145-97    C    0.55979002    0.02366988    0.44625020    -0.05200000
opls_145-98    C    0.97633002    0.53612030    0.44625020    -0.05200000
opls_145-99    C    0.44020994    0.46388016    0.55374980    -0.05200000
opls_145-100    C    0.02367015    0.55979018    0.55374980    -0.05190000
opls_145-101    C    0.53612014    0.97633012    0.55374980    -0.05200000
opls_145-102    C    0.53612003    0.55979018    0.55374980    -0.05200000
opls_145-103    C    0.44020998    0.97633012    0.55374980    -0.05200000
opls_145-104    C    0.02367021    0.46388016    0.55374980    -0.05200000
opls_145-105    C    0.55979029    0.53612030    0.44625020    -0.05200000
opls_145-106    C    0.97633008    0.44021028    0.44625020    -0.05200000
opls_145-107    C    0.46387986    0.02366988    0.44625020    -0.05200000
opls_701-108    C    0.58634985    0.29318006    0.81918979    -0.23880000
opls_701-109    C    0.70682993    0.29316992    0.81918979    -0.23130000
opls_701-110    C    0.70683020    0.41365002    0.81918979    -0.23880000
opls_701-111    C    0.29318018    0.58634998    0.18081021    -0.23870000
opls_701-112    C    0.29318004    0.70683008    0.18081021    -0.23130000
opls_701-113    C    0.41365003    0.70683008    0.18081021    -0.23870000
opls_145-114    C    0.52400014    0.47600004    0.39073019    -0.24660000
opls_145-115    C    0.52399996    0.04799993    0.39073019    -0.24650000
opls_145-116    C    0.95199990    0.47600004    0.39073019    -0.24660000
opls_145-117    C    0.47599986    0.52399996    0.60928028    -0.24660000
opls_145-118    C    0.04800010    0.52399996    0.60928028    -0.24660000
opls_145-119    C    0.47600004    0.95200007    0.60928028    -0.24650000
opls_167-120    O    0.51685002    0.39176025    0.70431040    -0.32530000
opls_167-121    O    0.60824003    0.12509024    0.70431040    -0.32530000
opls_167-122    O    0.87491018    0.48314997    0.70431040    -0.32530000
opls_167-123    O    0.39176021    0.51685003    0.29568960    -0.32530000
opls_167-124    O    0.12509000    0.60824021    0.29568960    -0.32530000
opls_167-125    O    0.48315002    0.87491022    0.29568960    -0.32530000
opls_167-126    O    0.48315021    0.60824021    0.29568960    -0.32530000
opls_167-127    O    0.39176020    0.87491022    0.29568960    -0.32520000
opls_167-128    O    0.12508982    0.51685003    0.29568960    -0.32520000
opls_167-129    O    0.60823979    0.48314997    0.70431040    -0.32530000
opls_167-130    O    0.87491023    0.39176025    0.70431040    -0.32510000
opls_167-131    O    0.51685021    0.12509024    0.70431040    -0.32530000
opls_167-132    O    0.51685002    0.39176025    0.20431040    -0.32530000
opls_167-133    O    0.60824003    0.12509024    0.20431040    -0.32520000
opls_167-134    O    0.87491018    0.48314997    0.20431040    -0.32530000
opls_167-135    O    0.39176021    0.51685003    0.79568960    -0.32530000
opls_167-136    O    0.12509000    0.60824021    0.79568960    -0.32530000
opls_167-137    O    0.48315002    0.87491022    0.79568960    -0.32520000
opls_167-138    O    0.48315021    0.60824021    0.79568960    -0.32530000
opls_167-139    O    0.39176020    0.87491022    0.79568960    -0.32530000
opls_167-140    O    0.12508982    0.51685003    0.79568960    -0.32530000
opls_167-141    O    0.60823979    0.48314997    0.20431040    -0.32530000
opls_167-142    O    0.87491023    0.39176025    0.20431040    -0.32510000
opls_167-143    O    0.51685021    0.12509024    0.20431040    -0.32530000
opls_146-144    H    0.50315017    0.29735024    0.50563981    0.10150000
opls_146-145    H    0.70264995    0.20580020    0.50563981    0.10150000
opls_146-146    H    0.79420011    0.49685002    0.50563981    0.10150000
opls_146-147    H    0.29735009    0.50314998    0.49436019    0.10150000
opls_146-148    H    0.20580016    0.70265022    0.49436019    0.10150000
opls_146-149    H    0.49684998    0.79420026    0.49436019    0.10150000
opls_146-150    H    0.49685006    0.70265022    0.49436019    0.10150000
opls_146-151    H    0.29735028    0.79420026    0.49436019    0.10150000
opls_146-152    H    0.20579989    0.50314998    0.49436019    0.10150000
opls_146-153    H    0.70264991    0.49685002    0.50563981    0.10150000
opls_146-154    H    0.79420007    0.29735024    0.50563981    0.10150000
opls_146-155    H    0.50315025    0.20580020    0.50563981    0.10150000
opls_146-156    H    0.43561995    0.39304005    0.90264021    0.08900000
opls_146-157    H    0.60696012    0.04257989    0.90264021    0.08900000
opls_146-158    H    0.95741993    0.56438005    0.90264021    0.08900000
opls_146-159    H    0.39303988    0.43561995    0.09735979    0.08900000
opls_146-160    H    0.04257990    0.60695995    0.09735979    0.08900000
opls_146-161    H    0.56438022    0.95742011    0.09735979    0.08900000
opls_146-162    H    0.56438005    0.60695995    0.09735979    0.08900000
opls_146-163    H    0.39303988    0.95742011    0.09735979    0.08900000
opls_146-164    H    0.04258007    0.43561995    0.09735979    0.08900000
opls_146-165    H    0.60696012    0.56438005    0.90264021    0.08900000
opls_146-166    H    0.95742010    0.39304005    0.90264021    0.08900000
opls_146-167    H    0.43561978    0.04257989    0.90264021    0.08900000
opls_702-168    H    0.53847017    0.26924021    0.27519016    0.10380000
opls_702-169    H    0.73077016    0.26923008    0.27519016    0.10390000
opls_702-170    H    0.73077027    0.46153017    0.27519016    0.10380000
opls_702-171    H    0.26922996    0.53847029    0.72480984    0.10380000
opls_702-172    H    0.26922984    0.73076992    0.72480984    0.11450000
opls_702-173    H    0.46153011    0.73076992    0.72480984    0.10380000
opls_702-174    H    0.61512019    0.30756009    0.21363954    0.08830000
opls_702-175    H    0.69243990    0.30756009    0.21363954    0.11080000
opls_702-176    H    0.69244014    0.38488028    0.21363954    0.08830000
opls_702-177    H    0.30756009    0.61512018    0.78636046    0.08830000
opls_702-178    H    0.30756010    0.69243991    0.78636046    0.08830000
opls_702-179    H    0.38487981    0.69243991    0.78636046    0.08830000
opls_146-180    H    0.50315017    0.29735024    0.00563981    0.10150000
opls_146-181    H    0.70264995    0.20580020    0.00563981    0.10150000
opls_146-182    H    0.79420011    0.49685002    0.00563981    0.10150000
opls_146-183    H    0.29735009    0.50314998    0.99436019    0.10150000
opls_146-184    H    0.20580016    0.70265022    0.99436019    0.10150000
opls_146-185    H    0.49684998    0.79420026    0.99436019    0.10150000
opls_146-186    H    0.49685006    0.70265022    0.99436019    0.10150000
opls_146-187    H    0.29735028    0.79420026    0.99436019    0.10150000
opls_146-188    H    0.20579989    0.50314998    0.99436019    0.10150000
opls_146-189    H    0.70264991    0.49685002    0.00563981    0.10150000
opls_146-190    H    0.79420007    0.29735024    0.00563981    0.10150000
opls_146-191    H    0.50315025    0.20580020    0.00563981    0.10150000
opls_146-192    H    0.43561995    0.39304005    0.40264021    0.08900000
opls_146-193    H    0.60696012    0.04257989    0.40264021    0.08910000
opls_146-194    H    0.95741993    0.56438005    0.40264021    0.08900000
opls_146-195    H    0.39303988    0.43561995    0.59735979    0.08910000
opls_146-196    H    0.04257990    0.60695995    0.59735979    0.08910000
opls_146-197    H    0.56438022    0.95742011    0.59735979    0.08900000
opls_146-198    H    0.56438005    0.60695995    0.59735979    0.08900000
opls_146-199    H    0.39303988    0.95742011    0.59735979    0.08900000
opls_146-200    H    0.04258007    0.43561995    0.59735979    0.08900000
opls_146-201    H    0.60696012    0.56438005    0.40264021    0.08910000
opls_146-202    H    0.95742010    0.39304005    0.40264021    0.08900000
opls_146-203    H    0.43561978    0.04257989    0.40264021    0.08900000
opls_702-204    H    0.53847017    0.26924021    0.77519016    0.10390000
opls_702-205    H    0.73077016    0.26923008    0.77519016    0.10380000
opls_702-206    H    0.73077027    0.46153017    0.77519016    0.10380000
opls_702-207    H    0.26922996    0.53847029    0.22480984    0.10380000
opls_702-208    H    0.26922984    0.73076992    0.22480984    0.11450000
opls_702-209    H    0.46153011    0.73076992    0.22480984    0.10380000
opls_702-210    H    0.61512019    0.30756009    0.71363954    0.08830000
opls_702-211    H    0.69243990    0.30756009    0.71363954    0.11080000
opls_702-212    H    0.69244014    0.38488028    0.71363954    0.08830000
opls_702-213    H    0.30756009    0.61512018    0.28636046    0.08830000
opls_702-214    H    0.30756010    0.69243991    0.28636046    0.08830000
opls_702-215    H    0.38487981    0.69243991    0.28636046    0.08830000
MOF2_B_2-216    B    0.54942983    0.45056985    0.76811975    0.58810000
MOF2_B_2-217    B    0.54942992    0.09885983    0.76811975    0.58800000
MOF2_B_2-218    B    0.90114002    0.45056985    0.76811975    0.58800000
MOF2_B_2-219    B    0.45057017    0.54943015    0.23188025    0.58810000
MOF2_B_2-220    B    0.09885998    0.54943015    0.23188025    0.58810000
MOF2_B_2-221    B    0.45057008    0.90114017    0.23188025    0.58800000
MOF2_B_2-222    B    0.54942983    0.45056985    0.26811975    0.58810000
MOF2_B_2-223    B    0.54942992    0.09885983    0.26811975    0.58800000
MOF2_B_2-224    B    0.90114002    0.45056985    0.26811975    0.58810000
MOF2_B_2-225    B    0.45057017    0.54943015    0.73188025    0.58810000
MOF2_B_2-226    B    0.09885998    0.54943015    0.73188025    0.58810000
MOF2_B_2-227    B    0.45057008    0.90114017    0.73188025    0.58800000
