#======================================================================
# Crystal Data Generated By AuToFF
#----------------------------------------------------------------------

data_AuToFF_phase_1

_cell_length_a                         26.3770
_cell_length_b                         26.3770
_cell_length_c                         24.6664
_cell_angle_alpha                      90.00
_cell_angle_beta                       90.00
_cell_angle_gamma                      90.00
_symmetry_space_group_name_H-M_alt     'P 1'
_symmetry_space_group_IT_number        1

loop_
_space_group_symop_operation_xyz
   'x, y, z'

loop_
   _atom_site_label
   _atom_site_type_symbol
   _atom_site_fract_x
   _atom_site_fract_y
   _atom_site_fract_z
   _atom_site_charge
opls_145-0    C    0.49992986    0.59397998    0.97555987    -0.16650000
opls_166-1    C    0.49989991    0.62957008    0.93253981    0.28800000
opls_700-2    C    0.49992986    0.61195018    0.87816990    -0.03010000
opls_145-3    C    0.49997005    0.55959017    0.86698991    -0.07700000
opls_716-4    C    0.49997991    0.52593017    0.91035011    0.00090000
opls_700-5    C    0.49997005    0.54223983    0.96346001    0.00640000
opls_142-6    C    0.49992986    0.64859006    0.83322009    0.01520000
opls_145-7    C    0.49992986    0.72082003    0.74548009    -0.12680000
opls_145-8    C    0.49992986    0.75321985    0.70067014    -0.07050000
opls_700-9    C    0.49999014    0.73368010    0.64758984    0.11270000
opls_145-10    C    0.50004019    0.68073018    0.64075990    -0.07060000
opls_145-11    C    0.50002995    0.64830989    0.68556011    -0.10500000
opls_145-12    C    0.49997991    0.66806005    0.73810001    0.24770000
opls_181-13    C    0.49970012    0.69740001    0.99737011    -0.16250000
opls_701-14    C    0.50000000    0.50000000    0.00000000    -0.00100000
opls_145-15    C    0.00007014    0.90602002    0.47555987    -0.16650000
opls_166-16    C    0.00010009    0.87042992    0.43253981    0.28800000
opls_700-17    C    0.00007014    0.88804982    0.37816990    -0.03010000
opls_145-18    C    0.00002995    0.94040983    0.36698991    -0.07700000
opls_716-19    C    0.00002009    0.97406983    0.41035011    0.00090000
opls_700-20    C    0.00002995    0.95776017    0.46346001    0.00640000
opls_142-21    C    0.00007014    0.85140994    0.33322009    0.01520000
opls_145-22    C    0.00007014    0.77917997    0.24548009    -0.12680000
opls_145-23    C    0.00007014    0.74678015    0.20067014    -0.07060000
opls_700-24    C    0.00000986    0.76631990    0.14758984    0.11270000
opls_145-25    C    0.99995981    0.81926982    0.14075990    -0.07060000
opls_145-26    C    0.99997005    0.85169011    0.18556011    -0.10500000
opls_145-27    C    0.00002009    0.83193995    0.23810001    0.24780000
opls_181-28    C    0.00029988    0.80259999    0.49737011    -0.16250000
opls_701-29    C    0.00000000    0.00000000    0.50000000    -0.00100000
opls_145-30    C    0.40602002    0.99992986    0.22555987    -0.16650000
opls_166-31    C    0.37042992    0.99989991    0.18253981    0.28810000
opls_700-32    C    0.38804982    0.99992986    0.12816990    -0.03010000
opls_145-33    C    0.44040983    0.99997005    0.11698991    -0.07700000
opls_716-34    C    0.47406983    0.99997991    0.16035011    0.00090000
opls_700-35    C    0.45776017    0.99997005    0.21346001    0.00640000
opls_142-36    C    0.35140994    0.99992986    0.08322009    0.01520000
opls_145-37    C    0.27917997    0.99992986    0.99548009    -0.12680000
opls_145-38    C    0.24678015    0.99992986    0.95067014    -0.07060000
opls_700-39    C    0.26631990    0.99999014    0.89758984    0.11260000
opls_145-40    C    0.31926982    0.00004019    0.89075990    -0.07060000
opls_145-41    C    0.35169011    0.00002995    0.93556011    -0.10490000
opls_145-42    C    0.33193995    0.99997991    0.98810001    0.24770000
opls_181-43    C    0.30259999    0.99970012    0.24737011    -0.16250000
opls_701-44    C    0.50000000    0.00000000    0.25000000    -0.00100000
opls_145-45    C    0.09397998    0.50007014    0.72555987    -0.16650000
opls_166-46    C    0.12957008    0.50010009    0.68253981    0.28810000
opls_700-47    C    0.11195018    0.50007014    0.62816990    -0.03010000
opls_145-48    C    0.05959017    0.50002995    0.61698991    -0.07700000
opls_716-49    C    0.02593017    0.50002009    0.66035011    0.00090000
opls_700-50    C    0.04223983    0.50002995    0.71346001    0.00640000
opls_142-51    C    0.14859006    0.50007014    0.58322009    0.01520000
opls_145-52    C    0.22082003    0.50007014    0.49548009    -0.12670000
opls_145-53    C    0.25321985    0.50007014    0.45067014    -0.07060000
opls_700-54    C    0.23368010    0.50000986    0.39758984    0.11260000
opls_145-55    C    0.18073018    0.49995981    0.39075990    -0.07060000
opls_145-56    C    0.14830989    0.49997005    0.43556011    -0.10500000
opls_145-57    C    0.16806005    0.50002009    0.48810001    0.24780000
opls_181-58    C    0.19740001    0.50029988    0.74737011    -0.16250000
opls_701-59    C    0.00000000    0.50000000    0.75000000    -0.00100000
opls_145-60    C    0.50007014    0.90602002    0.27444013    -0.16650000
opls_166-61    C    0.50010009    0.87042992    0.31746019    0.28810000
opls_700-62    C    0.50007014    0.88804982    0.37183010    -0.03010000
opls_145-63    C    0.50002995    0.94040983    0.38301009    -0.07700000
opls_716-64    C    0.50002009    0.97406983    0.33964989    0.00090000
opls_700-65    C    0.50002995    0.95776017    0.28653999    0.00640000
opls_142-66    C    0.50007014    0.85140994    0.41677991    0.01520000
opls_145-67    C    0.50007014    0.77917997    0.50451991    -0.12680000
opls_145-68    C    0.50007014    0.74678015    0.54932986    -0.07060000
opls_700-69    C    0.50000986    0.76631990    0.60241016    0.11260000
opls_145-70    C    0.49995981    0.81926982    0.60924010    -0.07060000
opls_145-71    C    0.49997005    0.85169011    0.56443989    -0.10500000
opls_145-72    C    0.50002009    0.83193995    0.51189999    0.24770000
opls_181-73    C    0.50029988    0.80259999    0.25262989    -0.16250000
opls_145-74    C    0.99992986    0.59397998    0.77444013    -0.16650000
opls_166-75    C    0.99989991    0.62957008    0.81746019    0.28800000
opls_700-76    C    0.99992986    0.61195018    0.87183010    -0.03010000
opls_145-77    C    0.99997005    0.55959017    0.88301009    -0.07700000
opls_716-78    C    0.99997991    0.52593017    0.83964989    0.00090000
opls_700-79    C    0.99997005    0.54223983    0.78653999    0.00640000
opls_142-80    C    0.99992986    0.64859006    0.91677991    0.01520000
opls_145-81    C    0.99992986    0.72082003    0.00451991    -0.12680000
opls_145-82    C    0.99992986    0.75321985    0.04932986    -0.07060000
opls_700-83    C    0.99999014    0.73368010    0.10241016    0.11280000
opls_145-84    C    0.00004019    0.68073018    0.10924010    -0.07060000
opls_145-85    C    0.00002995    0.64830989    0.06443989    -0.10500000
opls_145-86    C    0.99997991    0.66806005    0.01189999    0.24770000
opls_181-87    C    0.99970012    0.69740001    0.75262989    -0.16250000
opls_145-88    C    0.59397998    0.50007014    0.02444013    -0.16650000
opls_166-89    C    0.62957008    0.50010009    0.06746019    0.28800000
opls_700-90    C    0.61195018    0.50007014    0.12183010    -0.03010000
opls_145-91    C    0.55959017    0.50002995    0.13301009    -0.07700000
opls_716-92    C    0.52593017    0.50002009    0.08964989    0.00090000
opls_700-93    C    0.54223983    0.50002995    0.03653999    0.00640000
opls_142-94    C    0.64859006    0.50007014    0.16677991    0.01520000
opls_145-95    C    0.72082003    0.50007014    0.25451991    -0.12680000
opls_145-96    C    0.75321985    0.50007014    0.29932986    -0.07060000
opls_700-97    C    0.73368010    0.50000986    0.35241016    0.11260000
opls_145-98    C    0.68073018    0.49995981    0.35924010    -0.07060000
opls_145-99    C    0.64830989    0.49997005    0.31443989    -0.10500000
opls_145-100    C    0.66806005    0.50002009    0.26189999    0.24770000
opls_181-101    C    0.69740001    0.50029988    0.00262989    -0.16250000
opls_145-102    C    0.90602002    0.99992986    0.52444013    -0.16640000
opls_166-103    C    0.87042992    0.99989991    0.56746019    0.28800000
opls_700-104    C    0.88804982    0.99992986    0.62183010    -0.03010000
opls_145-105    C    0.94040983    0.99997005    0.63301009    -0.07700000
opls_716-106    C    0.97406983    0.99997991    0.58964989    0.00090000
opls_700-107    C    0.95776017    0.99997005    0.53653999    0.00640000
opls_142-108    C    0.85140994    0.99992986    0.66677991    0.01520000
opls_145-109    C    0.77917997    0.99992986    0.75451991    -0.12680000
opls_145-110    C    0.74678015    0.99992986    0.79932986    -0.07060000
opls_700-111    C    0.76631990    0.99999014    0.85241016    0.11260000
opls_145-112    C    0.81926982    0.00004019    0.85924010    -0.07060000
opls_145-113    C    0.85169011    0.00002995    0.81443989    -0.10500000
opls_145-114    C    0.83193995    0.99997991    0.76189999    0.24770000
opls_181-115    C    0.80259999    0.99970012    0.50262989    -0.16250000
opls_145-116    C    0.90602002    0.49992986    0.72555987    -0.16650000
opls_166-117    C    0.87042992    0.49989991    0.68253981    0.28800000
opls_700-118    C    0.88804982    0.49992986    0.62816990    -0.03010000
opls_145-119    C    0.94040983    0.49997005    0.61698991    -0.07690000
opls_716-120    C    0.97406983    0.49997991    0.66035011    0.00090000
opls_700-121    C    0.95776017    0.49997005    0.71346001    0.00640000
opls_142-122    C    0.85140994    0.49992986    0.58322009    0.01520000
opls_145-123    C    0.77917997    0.49992986    0.49548009    -0.12680000
opls_145-124    C    0.74678015    0.49992986    0.45067014    -0.07060000
opls_700-125    C    0.76631990    0.49999014    0.39758984    0.11260000
opls_145-126    C    0.81926982    0.50004019    0.39075990    -0.07060000
opls_145-127    C    0.85169011    0.50002995    0.43556011    -0.10500000
opls_145-128    C    0.83193995    0.49997991    0.48810001    0.24770000
opls_181-129    C    0.80259999    0.49970012    0.74737011    -0.16250000
opls_145-130    C    0.59397998    0.00007014    0.22555987    -0.16650000
opls_166-131    C    0.62957008    0.00010009    0.18253981    0.28800000
opls_700-132    C    0.61195018    0.00007014    0.12816990    -0.03010000
opls_145-133    C    0.55959017    0.00002995    0.11698991    -0.07700000
opls_716-134    C    0.52593017    0.00002009    0.16035011    0.00090000
opls_700-135    C    0.54223983    0.00002995    0.21346001    0.00640000
opls_142-136    C    0.64859006    0.00007014    0.08322009    0.01520000
opls_145-137    C    0.72082003    0.00007014    0.99548009    -0.12680000
opls_145-138    C    0.75321985    0.00007014    0.95067014    -0.07050000
opls_700-139    C    0.73368010    0.00000986    0.89758984    0.11260000
opls_145-140    C    0.68073018    0.99995981    0.89075990    -0.07050000
opls_145-141    C    0.64830989    0.99997005    0.93556011    -0.10500000
opls_145-142    C    0.66806005    0.00002009    0.98810001    0.24770000
opls_181-143    C    0.69740001    0.00029988    0.24737011    -0.16250000
opls_145-144    C    0.50007014    0.40602002    0.97555987    -0.16650000
opls_166-145    C    0.50010009    0.37042992    0.93253981    0.28810000
opls_700-146    C    0.50007014    0.38804982    0.87816990    -0.03010000
opls_145-147    C    0.50002995    0.44040983    0.86698991    -0.07700000
opls_716-148    C    0.50002009    0.47406983    0.91035011    0.00090000
opls_700-149    C    0.50002995    0.45776017    0.96346001    0.00640000
opls_142-150    C    0.50007014    0.35140994    0.83322009    0.01520000
opls_145-151    C    0.50007014    0.27917997    0.74548009    -0.12680000
opls_145-152    C    0.50007014    0.24678015    0.70067014    -0.07060000
opls_700-153    C    0.50000986    0.26631990    0.64758984    0.11260000
opls_145-154    C    0.49995981    0.31926982    0.64075990    -0.07060000
opls_145-155    C    0.49997005    0.35169011    0.68556011    -0.10500000
opls_145-156    C    0.50002009    0.33193995    0.73810001    0.24770000
opls_181-157    C    0.50029988    0.30259999    0.99737011    -0.16240000
opls_145-158    C    0.99992986    0.09397998    0.47555987    -0.16650000
opls_166-159    C    0.99989991    0.12957008    0.43253981    0.28810000
opls_700-160    C    0.99992986    0.11195018    0.37816990    -0.03010000
opls_145-161    C    0.99997005    0.05959017    0.36698991    -0.07700000
opls_716-162    C    0.99997991    0.02593017    0.41035011    0.00090000
opls_700-163    C    0.99997005    0.04223983    0.46346001    0.00640000
opls_142-164    C    0.99992986    0.14859006    0.33322009    0.01520000
opls_145-165    C    0.99992986    0.22082003    0.24548009    -0.12680000
opls_145-166    C    0.99992986    0.25321985    0.20067014    -0.07060000
opls_700-167    C    0.99999014    0.23368010    0.14758984    0.11280000
opls_145-168    C    0.00004019    0.18073018    0.14075990    -0.07050000
opls_145-169    C    0.00002995    0.14830989    0.18556011    -0.10500000
opls_145-170    C    0.99997991    0.16806005    0.23810001    0.24770000
opls_181-171    C    0.99970012    0.19740001    0.49737011    -0.16250000
opls_145-172    C    0.00007014    0.40602002    0.77444013    -0.16640000
opls_166-173    C    0.00010009    0.37042992    0.81746019    0.28810000
opls_700-174    C    0.00007014    0.38804982    0.87183010    -0.03010000
opls_145-175    C    0.00002995    0.44040983    0.88301009    -0.07700000
opls_716-176    C    0.00002009    0.47406983    0.83964989    0.00090000
opls_700-177    C    0.00002995    0.45776017    0.78653999    0.00640000
opls_142-178    C    0.00007014    0.35140994    0.91677991    0.01520000
opls_145-179    C    0.00007014    0.27917997    0.00451991    -0.12680000
opls_145-180    C    0.00007014    0.24678015    0.04932986    -0.07060000
opls_700-181    C    0.00000986    0.26631990    0.10241016    0.11260000
opls_145-182    C    0.99995981    0.31926982    0.10924010    -0.07060000
opls_145-183    C    0.99997005    0.35169011    0.06443989    -0.10500000
opls_145-184    C    0.00002009    0.33193995    0.01189999    0.24770000
opls_181-185    C    0.00029988    0.30259999    0.75262989    -0.16250000
opls_145-186    C    0.49992986    0.09397998    0.27444013    -0.16650000
opls_166-187    C    0.49989991    0.12957008    0.31746019    0.28800000
opls_700-188    C    0.49992986    0.11195018    0.37183010    -0.03010000
opls_145-189    C    0.49997005    0.05959017    0.38301009    -0.07700000
opls_716-190    C    0.49997991    0.02593017    0.33964989    0.00090000
opls_700-191    C    0.49997005    0.04223983    0.28653999    0.00640000
opls_142-192    C    0.49992986    0.14859006    0.41677991    0.01520000
opls_145-193    C    0.49992986    0.22082003    0.50451991    -0.12680000
opls_145-194    C    0.49992986    0.25321985    0.54932986    -0.07060000
opls_700-195    C    0.49999014    0.23368010    0.60241016    0.11260000
opls_145-196    C    0.50004019    0.18073018    0.60924010    -0.07060000
opls_145-197    C    0.50002995    0.14830989    0.56443989    -0.10500000
opls_145-198    C    0.49997991    0.16806005    0.51189999    0.24780000
opls_181-199    C    0.49970012    0.19740001    0.25262989    -0.16250000
opls_145-200    C    0.09397998    0.00007014    0.52444013    -0.16640000
opls_166-201    C    0.12957008    0.00010009    0.56746019    0.28800000
opls_700-202    C    0.11195018    0.00007014    0.62183010    -0.03010000
opls_145-203    C    0.05959017    0.00002995    0.63301009    -0.07700000
opls_716-204    C    0.02593017    0.00002009    0.58964989    0.00090000
opls_700-205    C    0.04223983    0.00002995    0.53653999    0.00640000
opls_142-206    C    0.14859006    0.00007014    0.66677991    0.01520000
opls_145-207    C    0.22082003    0.00007014    0.75451991    -0.12670000
opls_145-208    C    0.25321985    0.00007014    0.79932986    -0.07060000
opls_700-209    C    0.23368010    0.00000986    0.85241016    0.11270000
opls_145-210    C    0.18073018    0.99995981    0.85924010    -0.07060000
opls_145-211    C    0.14830989    0.99997005    0.81443989    -0.10500000
opls_145-212    C    0.16806005    0.00002009    0.76189999    0.24770000
opls_181-213    C    0.19740001    0.00029988    0.50262989    -0.16250000
opls_145-214    C    0.40602002    0.49992986    0.02444013    -0.16620000
opls_166-215    C    0.37042992    0.49989991    0.06746019    0.28800000
opls_700-216    C    0.38804982    0.49992986    0.12183010    -0.03010000
opls_145-217    C    0.44040983    0.49997005    0.13301009    -0.07700000
opls_716-218    C    0.47406983    0.49997991    0.08964989    0.00090000
opls_700-219    C    0.45776017    0.49997005    0.03653999    0.00640000
opls_142-220    C    0.35140994    0.49992986    0.16677991    0.01520000
opls_145-221    C    0.27917997    0.49992986    0.25451991    -0.12680000
opls_145-222    C    0.24678015    0.49992986    0.29932986    -0.07060000
opls_700-223    C    0.26631990    0.49999014    0.35241016    0.11260000
opls_145-224    C    0.31926982    0.50004019    0.35924010    -0.07060000
opls_145-225    C    0.35169011    0.50002995    0.31443989    -0.10500000
opls_145-226    C    0.33193995    0.49997991    0.26189999    0.24770000
opls_181-227    C    0.30259999    0.49970012    0.00262989    -0.16240000
opls_750-228    N    0.49997991    0.63378019    0.78310009    -0.26780000
opls_750-229    N    0.00002009    0.86621981    0.28310009    -0.26750000
opls_750-230    N    0.36621981    0.99997991    0.03310009    -0.26780000
opls_750-231    N    0.13378019    0.50002009    0.53310009    -0.26780000
opls_750-232    N    0.50002009    0.86621981    0.46689991    -0.26780000
opls_750-233    N    0.99997991    0.63378019    0.96689991    -0.26770000
opls_750-234    N    0.63378019    0.50002009    0.21689991    -0.26770000
opls_750-235    N    0.86621981    0.99997991    0.71689991    -0.26780000
opls_750-236    N    0.86621981    0.49997991    0.53310009    -0.26780000
opls_750-237    N    0.63378019    0.00002009    0.03310009    -0.26760000
opls_750-238    N    0.50002009    0.36621981    0.78310009    -0.26780000
opls_750-239    N    0.99997991    0.13378019    0.28310009    -0.26770000
opls_750-240    N    0.00002009    0.36621981    0.96689991    -0.26780000
opls_750-241    N    0.49997991    0.13378019    0.46689991    -0.26770000
opls_750-242    N    0.13378019    0.00002009    0.71689991    -0.26780000
opls_750-243    N    0.36621981    0.49997991    0.21689991    -0.26780000
opls_179-244    O    0.49986996    0.68220988    0.94195991    -0.14790000
opls_179-245    O    0.00013004    0.81779012    0.44195991    -0.14800000
opls_179-246    O    0.31779012    0.99986996    0.19195991    -0.14800000
opls_179-247    O    0.18220988    0.50013004    0.69195991    -0.14800000
opls_179-248    O    0.50013004    0.81779012    0.30804009    -0.14800000
opls_179-249    O    0.99986996    0.68220988    0.80804009    -0.14800000
opls_179-250    O    0.68220988    0.50013004    0.05804009    -0.14800000
opls_179-251    O    0.81779012    0.99986996    0.55804009    -0.14800000
opls_179-252    O    0.81779012    0.49986996    0.69195991    -0.14800000
opls_179-253    O    0.68220988    0.00013004    0.19195991    -0.14800000
opls_179-254    O    0.50013004    0.31779012    0.94195991    -0.14800000
opls_179-255    O    0.99986996    0.18220988    0.44195991    -0.14800000
opls_179-256    O    0.00013004    0.31779012    0.80804009    -0.14800000
opls_179-257    O    0.49986996    0.18220988    0.30804009    -0.14800000
opls_179-258    O    0.18220988    0.00013004    0.55804009    -0.14800000
opls_179-259    O    0.31779012    0.49986996    0.05804009    -0.14800000
opls_185-260    H    0.47933996    0.66753990    0.02270984    0.07120000
opls_185-261    H    0.47922015    0.73525989    0.00148015    0.07110000
opls_185-262    H    0.54039997    0.70156007    0.01226000    0.07120000
opls_146-263    H    0.49992001    0.60769989    0.01938994    0.05180000
opls_146-264    H    0.49999014    0.54572999    0.82321985    0.05170000
opls_144-265    H    0.49989006    0.69100011    0.84210018    0.03050000
opls_146-266    H    0.49989006    0.73721007    0.78823987    0.05170000
opls_146-267    H    0.49987982    0.79604997    0.70687007    0.05170000
opls_146-268    H    0.50008985    0.66376009    0.59825998    0.05170000
opls_146-269    H    0.50005990    0.60548015    0.67933991    0.05170000
opls_185-270    H    0.02066004    0.83246010    0.52270984    0.07110000
opls_185-271    H    0.02077985    0.76474011    0.50148015    0.07110000
opls_185-272    H    0.95960003    0.79843993    0.51226000    0.07120000
opls_146-273    H    0.00007999    0.89230011    0.51938994    0.05170000
opls_146-274    H    0.00000986    0.95427001    0.32321985    0.05170000
opls_144-275    H    0.00010994    0.80899989    0.34210018    0.03050000
opls_146-276    H    0.00010994    0.76278993    0.28823987    0.05170000
opls_146-277    H    0.00012018    0.70395003    0.20687007    0.05180000
opls_146-278    H    0.99991015    0.83623991    0.09825998    0.05170000
opls_146-279    H    0.99994010    0.89451985    0.17933991    0.05170000
opls_185-280    H    0.33246010    0.97933996    0.27270984    0.07110000
opls_185-281    H    0.26474011    0.97922015    0.25148015    0.07110000
opls_185-282    H    0.29843993    0.04039997    0.26226000    0.07110000
opls_146-283    H    0.39230011    0.99992001    0.26938994    0.05170000
opls_146-284    H    0.45427001    0.99999014    0.07321985    0.05170000
opls_144-285    H    0.30899989    0.99989006    0.09210018    0.03050000
opls_146-286    H    0.26278993    0.99989006    0.03823987    0.05170000
opls_146-287    H    0.20395003    0.99987982    0.95687007    0.05170000
opls_146-288    H    0.33623991    0.00008985    0.84825998    0.05170000
opls_146-289    H    0.39451985    0.00005990    0.92933991    0.05170000
opls_185-290    H    0.16753990    0.52066004    0.77270984    0.07110000
opls_185-291    H    0.23525989    0.52077985    0.75148015    0.07110000
opls_185-292    H    0.20156007    0.45960003    0.76226000    0.07110000
opls_146-293    H    0.10769989    0.50007999    0.76938994    0.05170000
opls_146-294    H    0.04572999    0.50000986    0.57321985    0.05170000
opls_144-295    H    0.19100011    0.50010994    0.59210018    0.03050000
opls_146-296    H    0.23721007    0.50010994    0.53823987    0.05170000
opls_146-297    H    0.29604997    0.50012018    0.45687007    0.05170000
opls_146-298    H    0.16376009    0.49991015    0.34825998    0.05170000
opls_146-299    H    0.10548015    0.49994010    0.42933991    0.05170000
opls_185-300    H    0.52066004    0.83246010    0.22729016    0.07110000
opls_185-301    H    0.52077985    0.76474011    0.24851985    0.07120000
opls_185-302    H    0.45960003    0.79843993    0.23774000    0.07110000
opls_146-303    H    0.50007999    0.89230011    0.23061006    0.05170000
opls_146-304    H    0.50000986    0.95427001    0.42678015    0.05170000
opls_144-305    H    0.50010994    0.80899989    0.40789982    0.03050000
opls_146-306    H    0.50010994    0.76278993    0.46176013    0.05170000
opls_146-307    H    0.50012018    0.70395003    0.54312993    0.05170000
opls_146-308    H    0.49991015    0.83623991    0.65174002    0.05170000
opls_146-309    H    0.49994010    0.89451985    0.57066009    0.05170000
opls_185-310    H    0.97933996    0.66753990    0.72729016    0.07110000
opls_185-311    H    0.97922015    0.73525989    0.74851985    0.07110000
opls_185-312    H    0.04039997    0.70156007    0.73774000    0.07110000
opls_146-313    H    0.99992001    0.60769989    0.73061006    0.05170000
opls_146-314    H    0.99999014    0.54572999    0.92678015    0.05170000
opls_144-315    H    0.99989006    0.69100011    0.90789982    0.03050000
opls_146-316    H    0.99989006    0.73721007    0.96176013    0.05170000
opls_146-317    H    0.99987982    0.79604997    0.04312993    0.05170000
opls_146-318    H    0.00008985    0.66376009    0.15174002    0.05170000
opls_146-319    H    0.00005990    0.60548015    0.07066009    0.05170000
opls_185-320    H    0.66753990    0.52066004    0.97729016    0.07110000
opls_185-321    H    0.73525989    0.52077985    0.99851985    0.07110000
opls_185-322    H    0.70156007    0.45960003    0.98774000    0.07110000
opls_146-323    H    0.60769989    0.50007999    0.98061006    0.05170000
opls_146-324    H    0.54572999    0.50000986    0.17678015    0.05170000
opls_144-325    H    0.69100011    0.50010994    0.15789982    0.03050000
opls_146-326    H    0.73721007    0.50010994    0.21176013    0.05170000
opls_146-327    H    0.79604997    0.50012018    0.29312993    0.05180000
opls_146-328    H    0.66376009    0.49991015    0.40174002    0.05170000
opls_146-329    H    0.60548015    0.49994010    0.32066009    0.05170000
opls_185-330    H    0.83246010    0.97933996    0.47729016    0.07110000
opls_185-331    H    0.76474011    0.97922015    0.49851985    0.07110000
opls_185-332    H    0.79843993    0.04039997    0.48774000    0.07110000
opls_146-333    H    0.89230011    0.99992001    0.48061006    0.05170000
opls_146-334    H    0.95427001    0.99999014    0.67678015    0.05170000
opls_144-335    H    0.80899989    0.99989006    0.65789982    0.03050000
opls_146-336    H    0.76278993    0.99989006    0.71176013    0.05170000
opls_146-337    H    0.70395003    0.99987982    0.79312993    0.05170000
opls_146-338    H    0.83623991    0.00008985    0.90174002    0.05170000
opls_146-339    H    0.89451985    0.00005990    0.82066009    0.05170000
opls_185-340    H    0.83246010    0.47933996    0.77270984    0.07110000
opls_185-341    H    0.76474011    0.47922015    0.75148015    0.07110000
opls_185-342    H    0.79843993    0.54039997    0.76226000    0.07120000
opls_146-343    H    0.89230011    0.49992001    0.76938994    0.05170000
opls_146-344    H    0.95427001    0.49999014    0.57321985    0.05170000
opls_144-345    H    0.80899989    0.49989006    0.59210018    0.03050000
opls_146-346    H    0.76278993    0.49989006    0.53823987    0.05170000
opls_146-347    H    0.70395003    0.49987982    0.45687007    0.05170000
opls_146-348    H    0.83623991    0.50008985    0.34825998    0.05170000
opls_146-349    H    0.89451985    0.50005990    0.42933991    0.05170000
opls_185-350    H    0.66753990    0.02066004    0.27270984    0.07110000
opls_185-351    H    0.73525989    0.02077985    0.25148015    0.07110000
opls_185-352    H    0.70156007    0.95960003    0.26226000    0.07110000
opls_146-353    H    0.60769989    0.00007999    0.26938994    0.05170000
opls_146-354    H    0.54572999    0.00000986    0.07321985    0.05170000
opls_144-355    H    0.69100011    0.00010994    0.09210018    0.03050000
opls_146-356    H    0.73721007    0.00010994    0.03823987    0.05170000
opls_146-357    H    0.79604997    0.00012018    0.95687007    0.05170000
opls_146-358    H    0.66376009    0.99991015    0.84825998    0.05170000
opls_146-359    H    0.60548015    0.99994010    0.92933991    0.05170000
opls_185-360    H    0.52066004    0.33246010    0.02270984    0.07110000
opls_185-361    H    0.52077985    0.26474011    0.00148015    0.07110000
opls_185-362    H    0.45960003    0.29843993    0.01226000    0.07110000
opls_146-363    H    0.50007999    0.39230011    0.01938994    0.05170000
opls_146-364    H    0.50000986    0.45427001    0.82321985    0.05170000
opls_144-365    H    0.50010994    0.30899989    0.84210018    0.03050000
opls_146-366    H    0.50010994    0.26278993    0.78823987    0.05170000
opls_146-367    H    0.50012018    0.20395003    0.70687007    0.05180000
opls_146-368    H    0.49991015    0.33623991    0.59825998    0.05170000
opls_146-369    H    0.49994010    0.39451985    0.67933991    0.05170000
opls_185-370    H    0.97933996    0.16753990    0.52270984    0.07110000
opls_185-371    H    0.97922015    0.23525989    0.50148015    0.07110000
opls_185-372    H    0.04039997    0.20156007    0.51226000    0.07110000
opls_146-373    H    0.99992001    0.10769989    0.51938994    0.05170000
opls_146-374    H    0.99999014    0.04572999    0.32321985    0.05170000
opls_144-375    H    0.99989006    0.19100011    0.34210018    0.03050000
opls_146-376    H    0.99989006    0.23721007    0.28823987    0.05170000
opls_146-377    H    0.99987982    0.29604997    0.20687007    0.05170000
opls_146-378    H    0.00008985    0.16376009    0.09825998    0.05170000
opls_146-379    H    0.00005990    0.10548015    0.17933991    0.05170000
opls_185-380    H    0.02066004    0.33246010    0.72729016    0.07130000
opls_185-381    H    0.02077985    0.26474011    0.74851985    0.07110000
opls_185-382    H    0.95960003    0.29843993    0.73774000    0.07110000
opls_146-383    H    0.00007999    0.39230011    0.73061006    0.05170000
opls_146-384    H    0.00000986    0.45427001    0.92678015    0.05170000
opls_144-385    H    0.00010994    0.30899989    0.90789982    0.03050000
opls_146-386    H    0.00010994    0.26278993    0.96176013    0.05170000
opls_146-387    H    0.00012018    0.20395003    0.04312993    0.05170000
opls_146-388    H    0.99991015    0.33623991    0.15174002    0.05170000
opls_146-389    H    0.99994010    0.39451985    0.07066009    0.05170000
opls_185-390    H    0.47933996    0.16753990    0.22729016    0.07110000
opls_185-391    H    0.47922015    0.23525989    0.24851985    0.07110000
opls_185-392    H    0.54039997    0.20156007    0.23774000    0.07110000
opls_146-393    H    0.49992001    0.10769989    0.23061006    0.05180000
opls_146-394    H    0.49999014    0.04572999    0.42678015    0.05170000
opls_144-395    H    0.49989006    0.19100011    0.40789982    0.03050000
opls_146-396    H    0.49989006    0.23721007    0.46176013    0.05170000
opls_146-397    H    0.49987982    0.29604997    0.54312993    0.05170000
opls_146-398    H    0.50008985    0.16376009    0.65174002    0.05170000
opls_146-399    H    0.50005990    0.10548015    0.57066009    0.05170000
opls_185-400    H    0.16753990    0.02066004    0.47729016    0.07110000
opls_185-401    H    0.23525989    0.02077985    0.49851985    0.07110000
opls_185-402    H    0.20156007    0.95960003    0.48774000    0.07110000
opls_146-403    H    0.10769989    0.00007999    0.48061006    0.05170000
opls_146-404    H    0.04572999    0.00000986    0.67678015    0.05180000
opls_144-405    H    0.19100011    0.00010994    0.65789982    0.03050000
opls_146-406    H    0.23721007    0.00010994    0.71176013    0.05170000
opls_146-407    H    0.29604997    0.00012018    0.79312993    0.05170000
opls_146-408    H    0.16376009    0.99991015    0.90174002    0.05170000
opls_146-409    H    0.10548015    0.99994010    0.82066009    0.05170000
opls_185-410    H    0.33246010    0.47933996    0.97729016    0.07110000
opls_185-411    H    0.26474011    0.47922015    0.99851985    0.07120000
opls_185-412    H    0.29843993    0.54039997    0.98774000    0.07110000
opls_146-413    H    0.39230011    0.49992001    0.98061006    0.05170000
opls_146-414    H    0.45427001    0.49999014    0.17678015    0.05170000
opls_144-415    H    0.30899989    0.49989006    0.15789982    0.03050000
opls_146-416    H    0.26278993    0.49989006    0.21176013    0.05170000
opls_146-417    H    0.20395003    0.49987982    0.29312993    0.05170000
opls_146-418    H    0.33623991    0.50008985    0.40174002    0.05170000
opls_146-419    H    0.39451985    0.50005990    0.32066009    0.05170000
