#======================================================================
# Crystal Data Generated By AuToFF
#----------------------------------------------------------------------

data_AuToFF_phase_1

_cell_length_a                         16.0908
_cell_length_b                         16.0908
_cell_length_c                         7.2132
_cell_angle_alpha                      90.00
_cell_angle_beta                       90.00
_cell_angle_gamma                      120.00
_symmetry_space_group_name_H-M_alt     'P 1'
_symmetry_space_group_IT_number        1

loop_
_space_group_symop_operation_xyz
   'x, y, z'

loop_
   _atom_site_label
   _atom_site_type_symbol
   _atom_site_fract_x
   _atom_site_fract_y
   _atom_site_fract_z
   _atom_site_charge
opls_145-0    C    0.46838987    0.97550994    0.33368962    0.12100000
opls_145-1    C    0.49829987    0.93070992    0.41884046    -0.25190000
opls_145-2    C    0.45636974    0.83293984    0.42054983    0.06890000
opls_145-3    C    0.38196027    0.77807025    0.33444934    -0.16820000
opls_145-4    C    0.35138979    0.82451001    0.24898935    0.06910000
opls_145-5    C    0.39465993    0.92236980    0.25126019    -0.25520000
opls_142-6    C    0.53790016    0.40342977    0.35728941    0.09090000
opls_145-7    C    0.60428958    0.36816974    0.35599041    0.03940000
opls_145-8    C    0.57005022    0.27143015    0.35613043    -0.15200000
opls_135-9    C    0.49173001    0.79024029    0.51712000    -0.42870000
opls_135-10    C    0.27423009    0.77287040    0.15322048    -0.42870000
opls_145-11    C    0.13554983    0.30893991    0.81560057    0.12120000
opls_145-12    C    0.16484996    0.26403010    0.90151944    -0.24990000
opls_145-13    C    0.12247014    0.16618969    0.90370016    0.06700000
opls_145-14    C    0.04878992    0.11143994    0.81632978    -0.16750000
opls_145-15    C    0.01919013    0.15805983    0.72953058    0.06750000
opls_145-16    C    0.06236994    0.25593037    0.73225060    -0.25520000
opls_142-17    C    0.20427002    0.73630000    0.83929047    0.09090000
opls_145-18    C    0.27080000    0.70125023    0.83766012    0.03940000
opls_145-19    C    0.23679007    0.60460035    0.83762962    -0.15140000
opls_148-20    C    0.15640972    0.12329997    0.00231936    -0.44070000
opls_148-21    C    0.94350001    0.10663981    0.63136056    -0.44070000
opls_145-22    C    0.02449010    0.49287982    0.33368962    0.12100000
opls_145-23    C    0.06928984    0.56759005    0.41884046    -0.25190000
opls_145-24    C    0.16706022    0.62342986    0.42054983    0.06890000
opls_145-25    C    0.22192966    0.60388991    0.33444934    -0.16820000
opls_145-26    C    0.17548960    0.52687972    0.24898935    0.06910000
opls_145-27    C    0.07763020    0.47229000    0.25126019    -0.25520000
opls_142-28    C    0.59656996    0.13447037    0.35728941    0.09090000
opls_145-29    C    0.63182992    0.23611988    0.35599041    0.03940000
opls_145-30    C    0.72857014    0.29861988    0.35613043    -0.15200000
opls_135-31    C    0.20976005    0.70148991    0.51712000    -0.42870000
opls_135-32    C    0.22712984    0.50135988    0.15322048    -0.42870000
opls_145-33    C    0.69105987    0.82660975    0.81560057    0.12180000
opls_145-34    C    0.73596997    0.90081980    0.90151944    -0.24990000
opls_145-35    C    0.83380970    0.95628000    0.90370016    0.06700000
opls_145-36    C    0.88856029    0.93735002    0.81632978    -0.16750000
opls_145-37    C    0.84193979    0.86112993    0.72953058    0.06750000
opls_145-38    C    0.74406992    0.80643974    0.73225060    -0.25520000
opls_142-39    C    0.26370009    0.46796995    0.83929047    0.09090000
opls_145-40    C    0.29874999    0.56954985    0.83766012    0.03940000
opls_145-41    C    0.39539984    0.63218979    0.83762962    -0.15140000
opls_148-42    C    0.87669996    0.03311006    0.00231936    -0.44070000
opls_148-43    C    0.89335986    0.83686017    0.63136056    -0.44070000
opls_145-44    C    0.50712003    0.53161024    0.33368962    0.12100000
opls_145-45    C    0.43241029    0.50170003    0.41884046    -0.25190000
opls_145-46    C    0.37657004    0.54363030    0.42054983    0.06890000
opls_145-47    C    0.39611006    0.61803985    0.33444934    -0.16820000
opls_145-48    C    0.47311998    0.64861027    0.24898935    0.06910000
opls_145-49    C    0.52770988    0.60534021    0.25126019    -0.25520000
opls_142-50    C    0.86552988    0.46209986    0.35728941    0.09090000
opls_145-51    C    0.76388050    0.39571038    0.35599041    0.03940000
opls_145-52    C    0.70138026    0.42994997    0.35613043    -0.15200000
opls_135-53    C    0.29850995    0.50826980    0.51712000    -0.42850000
opls_135-54    C    0.49864043    0.72577043    0.15322048    -0.42870000
opls_145-55    C    0.17339031    0.86445034    0.81560057    0.12180000
opls_145-56    C    0.09918006    0.83515010    0.90151944    -0.24990000
opls_145-57    C    0.04372016    0.87753031    0.90370016    0.06700000
opls_145-58    C    0.06264979    0.95121004    0.81632978    -0.16750000
opls_145-59    C    0.13887008    0.98081025    0.72953058    0.06750000
opls_145-60    C    0.19356014    0.93762989    0.73225060    -0.25520000
opls_142-61    C    0.53202989    0.79573004    0.83929047    0.09090000
opls_145-62    C    0.43045001    0.72919992    0.83766012    0.03940000
opls_145-63    C    0.36781009    0.76320987    0.83762962    -0.15140000
opls_148-64    C    0.96688970    0.84358997    0.00231936    -0.44070000
opls_148-65    C    0.16314013    0.05650002    0.63136056    -0.44050000
opls_750-66    N    0.56601041    0.49069037    0.33221039    -0.20250000
opls_750-67    N    0.23222009    0.82347019    0.81411995    -0.20250000
opls_750-68    N    0.50931036    0.07532020    0.33221039    -0.20250000
opls_750-69    N    0.17652998    0.40875017    0.81411995    -0.20250000
opls_750-70    N    0.92468021    0.43399014    0.33221039    -0.20250000
opls_750-71    N    0.59125029    0.76778036    0.81411995    -0.20250000
opls_146-72    H    0.55329010    0.97226990    0.48606028    0.19570000
opls_146-73    H    0.37192977    0.95855986    0.18732047    0.19560000
opls_144-74    H    0.46448985    0.35443027    0.37487939    0.09550000
opls_140-75    H    0.52962985    0.75921992    0.46910941    0.12910000
opls_140-76    H    0.43277016    0.73565989    0.57323934    0.12850000
opls_140-77    H    0.54130987    0.84294986    0.58558060    0.12960000
opls_140-78    H    0.28698000    0.72307005    0.09804941    0.12860000
opls_140-79    H    0.26955996    0.82120037    0.08391005    0.12960000
opls_140-80    H    0.20568999    0.73448013    0.20207952    0.12910000
opls_146-81    H    0.49522995    0.22343029    0.35646038    0.19510000
opls_146-82    H    0.21962987    0.30553985    0.96904009    0.19560000
opls_146-83    H    0.04019989    0.29228980    0.66767038    0.19560000
opls_144-84    H    0.13096019    0.68726032    0.85731021    0.09560000
opls_140-85    H    0.19378960    0.09122973    0.95529030    0.12910000
opls_140-86    H    0.09670965    0.06953981    0.05826956    0.12850000
opls_140-87    H    0.20604996    0.17615019    0.07086037    0.12960000
opls_140-88    H    0.95834023    0.05862990    0.57518023    0.12850000
opls_140-89    H    0.93831002    0.15528983    0.56300948    0.12970000
opls_140-90    H    0.87447987    0.06632991    0.67881939    0.12910000
opls_146-91    H    0.16199040    0.55643041    0.83793046    0.19510000
opls_146-92    H    0.02773014    0.58102022    0.48606028    0.19560000
opls_146-93    H    0.04144035    0.41337018    0.18732047    0.19560000
opls_144-94    H    0.64556992    0.11005996    0.37487939    0.09550000
opls_140-95    H    0.24078044    0.77041042    0.46910941    0.12910000
opls_140-96    H    0.26433995    0.69711031    0.57323934    0.12850000
opls_140-97    H    0.15704991    0.69836039    0.58558060    0.12960000
opls_140-98    H    0.27692983    0.56391011    0.09804941    0.12850000
opls_140-99    H    0.17880023    0.44836039    0.08391005    0.12960000
opls_140-100    H    0.26552022    0.47120999    0.20207952    0.12910000
opls_146-101    H    0.77656968    0.27179972    0.35646038    0.19510000
opls_146-102    H    0.69446014    0.91408995    0.96904009    0.19560000
opls_146-103    H    0.70770984    0.74791030    0.66767038    0.19560000
opls_144-104    H    0.31273992    0.44370020    0.85731021    0.09560000
opls_140-105    H    0.90877008    0.10256016    0.95529030    0.12910000
opls_140-106    H    0.93046004    0.02717036    0.05826956    0.12850000
opls_140-107    H    0.82385020    0.02990017    0.07086037    0.12960000
opls_140-108    H    0.94137021    0.89971037    0.57518023    0.12850000
opls_140-109    H    0.84471014    0.78302036    0.56300948    0.12960000
opls_140-110    H    0.93367008    0.80814982    0.67881939    0.12910000
opls_146-111    H    0.44356967    0.60555980    0.83793046    0.19510000
opls_146-112    H    0.41897977    0.44670988    0.48606028    0.19560000
opls_146-113    H    0.58662988    0.62806996    0.18732047    0.19560000
opls_144-114    H    0.88993961    0.53550977    0.37487939    0.09550000
opls_140-115    H    0.22959007    0.47037038    0.46910941    0.12910000
opls_140-116    H    0.30288989    0.56722980    0.57323934    0.12850000
opls_140-117    H    0.30163960    0.45868975    0.58558060    0.12970000
opls_140-118    H    0.43609018    0.71301984    0.09804941    0.12850000
opls_140-119    H    0.55164017    0.73043996    0.08391005    0.12960000
opls_140-120    H    0.52878979    0.79430988    0.20207952    0.12910000
opls_146-121    H    0.72819975    0.50476999    0.35646038    0.19510000
opls_146-122    H    0.08590999    0.78037020    0.96904009    0.19560000
opls_146-123    H    0.25208965    0.95979990    0.66767038    0.19560000
opls_144-124    H    0.55630025    0.86904020    0.85731021    0.09560000
opls_140-125    H    0.89744032    0.80621010    0.95529030    0.12910000
opls_140-126    H    0.97282969    0.90328984    0.05826956    0.12850000
opls_140-127    H    0.97010019    0.79395036    0.07086037    0.12960000
opls_140-128    H    0.10028956    0.04165973    0.57518023    0.12860000
opls_140-129    H    0.21697984    0.06168981    0.56300948    0.12960000
opls_140-130    H    0.19185005    0.12552027    0.67881939    0.12910000
opls_146-131    H    0.39443993    0.83800979    0.83793046    0.19510000
MOF2_B_2-132    B    0.33332992    0.66666978    0.33437032    0.15990000
MOF2_B_2-133    B    0.00000000    0.00000000    0.81618006    0.15990000
