#======================================================================
# Crystal Data Generated By AuToFF
#----------------------------------------------------------------------

data_AuToFF_phase_1

_cell_length_a                         16.9700
_cell_length_b                         13.5100
_cell_length_c                         16.3300
_cell_angle_alpha                      90.00
_cell_angle_beta                       108.87
_cell_angle_gamma                      90.00
_symmetry_space_group_name_H-M_alt     'P 1'
_symmetry_space_group_IT_number        1

loop_
_space_group_symop_operation_xyz
   'x, y, z'

loop_
   _atom_site_label
   _atom_site_type_symbol
   _atom_site_fract_x
   _atom_site_fract_y
   _atom_site_fract_z
   _atom_site_charge
opls_186-0    O    0.45938974    0.43309993    0.17778990    -0.22970000
opls_186-1    O    0.54061993    0.43307994    0.32219004    -0.23020000
opls_171-2    O    0.53124016    0.68786010    0.18298005    -0.41960000
opls_171-3    O    0.46878015    0.68784012    0.31703030    -0.41970000
opls_186-4    O    0.54060968    0.43309993    0.82221010    -0.22970000
opls_186-5    O    0.45938007    0.43307994    0.67780996    -0.23020000
opls_171-6    O    0.46875984    0.68786010    0.81701995    -0.41970000
opls_171-7    O    0.53122005    0.68784012    0.68297035    -0.41960000
opls_175-8    C    0.49968974    0.59794004    0.14091976    0.20440000
opls_174-9    C    0.46980029    0.53235973    0.20424026    0.05870000
opls_197-10    C    0.49999982    0.37380015    0.24998997    0.50430000
opls_135-11    C    0.43399992    0.30654996    0.26658034    -0.50870000
opls_135-12    C    0.56598987    0.30654996    0.23336983    -0.50860000
opls_174-13    C    0.53021975    0.53235011    0.29575974    0.05870000
opls_175-14    C    0.50033980    0.59792006    0.35908995    0.20440000
opls_145-15    C    0.15221027    0.85937010    0.73837037    0.18840000
opls_142-16    C    0.20131983    0.73778979    0.85966009    0.02850000
opls_700-17    C    0.27387030    0.70423020    0.93455037    0.05730000
opls_145-18    C    0.27288001    0.61325981    0.97603017    -0.13270000
opls_145-19    C    0.34655992    0.57313027    0.03446986    -0.18480000
opls_700-20    C    0.42324035    0.62572021    0.05875033    0.01090000
opls_145-21    C    0.41913009    0.72188971    0.02290980    -0.13210000
opls_145-22    C    0.34791990    0.75880015    0.96049983    -0.12120000
opls_145-23    C    0.08094997    0.81213990    0.68342982    -0.18690000
opls_145-24    C    0.03381973    0.85854034    0.60576974    -0.13310000
opls_700-25    C    0.05539982    0.95072983    0.57938021    0.07940000
opls_145-26    C    0.12532978    0.99792006    0.63832986    -0.13280000
opls_145-27    C    0.17313972    0.95243967    0.71479983    -0.17810000
opls_145-28    C    0.84780030    0.85935011    0.76165034    0.18830000
opls_142-29    C    0.79869996    0.73774981    0.64035997    0.02850000
opls_700-30    C    0.72615028    0.70419023    0.56547034    0.05730000
opls_145-31    C    0.72713978    0.61321984    0.52398989    -0.13270000
opls_145-32    C    0.65345987    0.57309030    0.46555020    -0.18490000
opls_700-33    C    0.57678998    0.62568986    0.44126003    0.01090000
opls_145-34    C    0.58090031    0.72186010    0.47711026    -0.13210000
opls_145-35    C    0.65209990    0.75874981    0.53952023    -0.12120000
opls_145-36    C    0.82685003    0.95241007    0.78522023    -0.17810000
opls_145-37    C    0.87464967    0.99790007    0.86167985    -0.13270000
opls_700-38    C    0.94459986    0.95074019    0.92063014    0.07940000
opls_145-39    C    0.96619972    0.85856033    0.89423026    -0.13310000
opls_145-40    C    0.91908016    0.81215026    0.81657988    -0.18690000
opls_145-41    C    0.83871002    0.20052036    0.09609030    0.18990000
opls_142-42    C    0.78771975    0.35574019    0.14020013    0.06910000
opls_700-43    C    0.71540016    0.41874019    0.13741996    0.05920000
opls_145-44    C    0.72653019    0.50745004    0.18426983    -0.13230000
opls_145-45    C    0.65848030    0.56986010    0.17774007    -0.14790000
opls_700-46    C    0.57577996    0.54313990    0.12809969    0.00650000
opls_145-47    C    0.56676031    0.45054034    0.08765016    -0.13370000
opls_145-48    C    0.63452998    0.39174981    0.08765986    -0.12120000
opls_145-49    C    0.92039005    0.23060992    0.10512000    -0.17100000
opls_145-50    C    0.97369001    0.16780977    0.07943975    -0.12120000
opls_700-51    C    0.94442987    0.07729978    0.03966972    0.07990000
opls_145-52    C    0.86786996    0.04107032    0.04253984    -0.12930000
opls_145-53    C    0.81449012    0.10386010    0.06809972    -0.16920000
opls_145-54    C    0.16131022    0.20049001    0.40391035    0.18990000
opls_142-55    C    0.21230971    0.35570022    0.35979987    0.06710000
opls_700-56    C    0.28462996    0.41870984    0.36258974    0.06040000
opls_145-57    C    0.27348984    0.50741007    0.31573017    -0.13230000
opls_145-58    C    0.34153974    0.56982976    0.32225993    -0.12590000
opls_700-59    C    0.42424015    0.54311029    0.37191001    0.00650000
opls_145-60    C    0.43326974    0.45050999    0.41234984    -0.12880000
opls_145-61    C    0.36548978    0.39170984    0.41232978    -0.12120000
opls_145-62    C    0.18550988    0.10382013    0.43190028    -0.16900000
opls_145-63    C    0.13213004    0.04103997    0.45746016    -0.12850000
opls_700-64    C    0.05558015    0.07727979    0.46033028    0.07990000
opls_145-65    C    0.02633010    0.16780015    0.42056996    -0.12120000
opls_145-66    C    0.07963026    0.23058031    0.39489035    -0.17100000
opls_175-67    C    0.50031026    0.59794004    0.85908024    0.20440000
opls_174-68    C    0.53019991    0.53235973    0.79576038    0.05870000
opls_197-69    C    0.50000018    0.37380015    0.75001003    0.50420000
opls_135-70    C    0.56600028    0.30654996    0.73342031    -0.50870000
opls_135-71    C    0.43401013    0.30654996    0.76663017    -0.50870000
opls_174-72    C    0.46978025    0.53235011    0.70424026    0.05870000
opls_175-73    C    0.49966020    0.59792006    0.64091005    0.20450000
opls_145-74    C    0.84778993    0.85937010    0.26163028    0.18830000
opls_142-75    C    0.79868017    0.73778979    0.14033991    0.02850000
opls_700-76    C    0.72612990    0.70423020    0.06545028    0.05730000
opls_145-77    C    0.72711999    0.61325981    0.02396983    -0.13270000
opls_145-78    C    0.65344008    0.57313027    0.96553014    -0.18480000
opls_700-79    C    0.57675986    0.62572021    0.94125032    0.01090000
opls_145-80    C    0.58086991    0.72188971    0.97709020    -0.13210000
opls_145-81    C    0.65208010    0.75880015    0.03950017    -0.12120000
opls_145-82    C    0.91905003    0.81213990    0.31657018    -0.18680000
opls_145-83    C    0.96618027    0.85854034    0.39423026    -0.13310000
opls_700-84    C    0.94460018    0.95072983    0.42061979    0.07950000
opls_145-85    C    0.87467022    0.99792006    0.36167014    -0.13280000
opls_145-86    C    0.82686028    0.95243967    0.28520017    -0.17810000
opls_145-87    C    0.15219990    0.85935011    0.23835031    0.18840000
opls_142-88    C    0.20130004    0.73774981    0.35964003    0.02850000
opls_700-89    C    0.27384992    0.70419023    0.43453030    0.05730000
opls_145-90    C    0.27286022    0.61321984    0.47601011    -0.13270000
opls_145-91    C    0.34654013    0.57309030    0.53444980    -0.18490000
opls_700-92    C    0.42321002    0.62568986    0.55873997    0.01090000
opls_145-93    C    0.41909969    0.72186010    0.52288974    -0.13210000
opls_145-94    C    0.34790010    0.75874981    0.46047977    -0.12120000
opls_145-95    C    0.17314997    0.95241007    0.21477977    -0.17800000
opls_145-96    C    0.12534974    0.99790007    0.13832015    -0.13270000
opls_700-97    C    0.05540014    0.95074019    0.07936986    0.07940000
opls_145-98    C    0.03379969    0.85856033    0.10576974    -0.13310000
opls_145-99    C    0.08091984    0.81215026    0.18342012    -0.18690000
opls_145-100    C    0.16129018    0.20052036    0.90391035    0.18990000
opls_142-101    C    0.21227966    0.35574019    0.85979987    0.06910000
opls_700-102    C    0.28459984    0.41874019    0.86258004    0.05920000
opls_145-103    C    0.27346981    0.50745004    0.81573017    -0.13230000
opls_145-104    C    0.34151970    0.56986010    0.82225993    -0.14790000
opls_700-105    C    0.42422004    0.54313990    0.87190031    0.00650000
opls_145-106    C    0.43323969    0.45054034    0.91234984    -0.13370000
opls_145-107    C    0.36547002    0.39174981    0.91234014    -0.12120000
opls_145-108    C    0.07960995    0.23060992    0.89488000    -0.17100000
opls_145-109    C    0.02630999    0.16780977    0.92056025    -0.12120000
opls_700-110    C    0.05557013    0.07729978    0.96033028    0.07990000
opls_145-111    C    0.13213004    0.04107032    0.95746016    -0.12920000
opls_145-112    C    0.18550988    0.10386010    0.93190028    -0.16920000
opls_145-113    C    0.83868998    0.20049001    0.59609030    0.19000000
opls_142-114    C    0.78768970    0.35570022    0.64020013    0.06710000
opls_700-115    C    0.71537004    0.41870984    0.63741026    0.06040000
opls_145-116    C    0.72651016    0.50741007    0.68426983    -0.13230000
opls_145-117    C    0.65846026    0.56982976    0.67774007    -0.12580000
opls_700-118    C    0.57575985    0.54311029    0.62808999    0.00650000
opls_145-119    C    0.56673026    0.45050999    0.58765016    -0.12870000
opls_145-120    C    0.63451022    0.39170984    0.58767022    -0.12120000
opls_145-121    C    0.81449032    0.10382013    0.56810037    -0.16900000
opls_145-122    C    0.86786996    0.04103997    0.54253984    -0.12850000
opls_700-123    C    0.94442005    0.07727979    0.53967037    0.07990000
opls_145-124    C    0.97366990    0.16780015    0.57943004    -0.12120000
opls_145-125    C    0.92036994    0.23058031    0.60511029    -0.17090000
opls_701-126    C    0.00000000    0.01084012    0.50000000    0.02800000
opls_701-127    C    0.00000000    0.01086010    0.00000000    0.02800000
opls_750-128    N    0.20876994    0.81623020    0.81624013    -0.33720000
opls_750-129    N    0.79124985    0.81619985    0.68377993    -0.33730000
opls_750-130    N    0.77643971    0.26743005    0.10633988    -0.34020000
opls_750-131    N    0.22358982    0.26739008    0.39366983    -0.34030000
opls_750-132    N    0.79123006    0.81623020    0.18375987    -0.33720000
opls_750-133    N    0.20875015    0.81619985    0.31622007    -0.33730000
opls_750-134    N    0.22355970    0.26743005    0.89366012    -0.34010000
opls_750-135    N    0.77641018    0.26739008    0.60633017    -0.34030000
opls_172-136    H    0.48426995    0.73168024    0.18264030    0.34550000
opls_172-137    H    0.51575012    0.73166025    0.31739012    0.34550000
opls_176-138    H    0.40823998    0.55980015    0.20336014    0.05330000
opls_140-139    H    0.45797009    0.27147002    0.33143977    0.16810000
opls_140-140    H    0.41556010    0.24686973    0.21715028    0.16580000
opls_140-141    H    0.37661971    0.34927979    0.25982990    0.10280000
opls_140-142    H    0.54201000    0.27147964    0.16850005    0.16850000
opls_140-143    H    0.58442019    0.24684974    0.28279018    0.11120000
opls_140-144    H    0.62337016    0.34927017    0.24012997    0.10280000
opls_176-145    H    0.59178005    0.55978979    0.29663986    0.05330000
opls_144-146    H    0.14499007    0.69388009    0.83921011    0.08730000
opls_146-147    H    0.21616974    0.56996003    0.95907028    0.11470000
opls_146-148    H    0.34191999    0.50111029    0.06114996    0.12160000
opls_146-149    H    0.46990023    0.77319985    0.04748989    0.09530000
opls_146-150    H    0.35089999    0.83145966    0.93361006    0.11400000
opls_146-151    H    0.06224977    0.74037010    0.70004025    0.11890000
opls_146-152    H    0.97750024    0.82221984    0.56643007    0.12060000
opls_146-153    H    0.14351986    0.07164027    0.62580036    0.12060000
opls_146-154    H    0.22728984    0.99072983    0.75670999    0.11130000
opls_144-155    H    0.85503001    0.69382976    0.66082030    0.09930000
opls_146-156    H    0.78385006    0.56992006    0.54094978    0.11470000
opls_146-157    H    0.65809010    0.50107994    0.43885975    0.11840000
opls_146-158    H    0.53013017    0.77317024    0.45253017    0.09520000
opls_146-159    H    0.64912982    0.83141969    0.56641001    0.11130000
opls_146-160    H    0.77268988    0.99068024    0.74331007    0.11130000
opls_146-161    H    0.85645028    0.07160992    0.87420028    0.11980000
opls_146-162    H    0.02254011    0.82225981    0.93358029    0.11890000
opls_146-163    H    0.93780001    0.74037972    0.79997010    0.11560000
opls_144-164    H    0.84964994    0.38535011    0.16956979    0.12130000
opls_146-165    H    0.78823966    0.53005033    0.22412981    0.11470000
opls_146-166    H    0.67132990    0.63743005    0.21528972    0.11560000
opls_146-167    H    0.50661019    0.41713027    0.06446014    0.10850000
opls_146-168    H    0.62266978    0.32168024    0.05363007    0.11160000
opls_146-169    H    0.94266004    0.30364989    0.12828995    0.11660000
opls_146-170    H    0.03561009    0.19437010    0.08637980    0.11910000
opls_146-171    H    0.84630983    0.96731014    0.02031019    0.11480000
opls_146-172    H    0.75266980    0.07817024    0.06311989    0.11430000
opls_144-173    H    0.15037984    0.38531014    0.33041986    0.12140000
opls_146-174    H    0.21177978    0.53001999    0.27587019    0.11470000
opls_146-175    H    0.32869021    0.63741007    0.28471998    0.11830000
opls_146-176    H    0.49341986    0.41709993    0.43553986    0.10840000
opls_146-177    H    0.37735969    0.32164027    0.44636993    0.11400000
opls_146-178    H    0.24733020    0.07811991    0.43688011    0.11470000
opls_146-179    H    0.15367984    0.96727979    0.47970016    0.11470000
opls_146-180    H    0.96441030    0.19437972    0.41364026    0.11960000
opls_146-181    H    0.05736978    0.30364027    0.37173011    0.11440000
opls_172-182    H    0.51573025    0.73168024    0.81736035    0.34560000
opls_172-183    H    0.48424988    0.73166025    0.68260988    0.34550000
opls_176-184    H    0.59176002    0.55980015    0.79663986    0.05330000
opls_140-185    H    0.54202991    0.27147002    0.66856023    0.16810000
opls_140-186    H    0.58444010    0.24686973    0.78285036    0.16580000
opls_140-187    H    0.62337970    0.34927979    0.74017010    0.10280000
opls_140-188    H    0.45799000    0.27147964    0.83149995    0.16850000
opls_140-189    H    0.41557981    0.24684974    0.71720982    0.11130000
opls_140-190    H    0.37662984    0.34927017    0.75987003    0.10280000
opls_176-191    H    0.40821995    0.55978979    0.70336014    0.05330000
opls_144-192    H    0.85500993    0.69388009    0.16078989    0.08730000
opls_146-193    H    0.78382967    0.56996003    0.04092972    0.11470000
opls_146-194    H    0.65808001    0.50111029    0.93885004    0.12160000
opls_146-195    H    0.53009977    0.77319985    0.95251011    0.09520000
opls_146-196    H    0.64910001    0.83145966    0.06638994    0.11410000
opls_146-197    H    0.93774964    0.74037010    0.29995975    0.11890000
opls_146-198    H    0.02249976    0.82221984    0.43356993    0.12060000
opls_146-199    H    0.85648034    0.07164027    0.37420028    0.12060000
opls_146-200    H    0.77271016    0.99072983    0.24329001    0.11130000
opls_144-201    H    0.14497019    0.69382976    0.33918034    0.09930000
opls_146-202    H    0.21614994    0.56992006    0.45905022    0.11470000
opls_146-203    H    0.34190990    0.50107994    0.56114025    0.11840000
opls_146-204    H    0.46986983    0.77317024    0.54746983    0.09520000
opls_146-205    H    0.35087018    0.83141969    0.43358999    0.11130000
opls_146-206    H    0.22731012    0.99068024    0.25668993    0.11140000
opls_146-207    H    0.14354972    0.07160992    0.12579972    0.11980000
opls_146-208    H    0.97745989    0.82225981    0.06641971    0.11890000
opls_146-209    H    0.06219999    0.74037972    0.20002990    0.11560000
opls_144-210    H    0.15035006    0.38535011    0.83043021    0.12130000
opls_146-211    H    0.21175975    0.53005033    0.77587019    0.11470000
opls_146-212    H    0.32867010    0.63743005    0.78471028    0.11570000
opls_146-213    H    0.49338981    0.41713027    0.93553986    0.10840000
opls_146-214    H    0.37732963    0.32168024    0.94636993    0.11150000
opls_146-215    H    0.05733996    0.30364989    0.87171005    0.11660000
opls_146-216    H    0.96438991    0.19437010    0.91362020    0.11910000
opls_146-217    H    0.15368958    0.96731014    0.97968981    0.11480000
opls_146-218    H    0.24733020    0.07817024    0.93688011    0.11430000
opls_144-219    H    0.84962016    0.38531014    0.66958014    0.12130000
opls_146-220    H    0.78821963    0.53001999    0.72412981    0.11470000
opls_146-221    H    0.67130979    0.63741007    0.71528002    0.11840000
opls_146-222    H    0.50658014    0.41709993    0.56446014    0.10840000
opls_146-223    H    0.62263972    0.32164027    0.55363007    0.11400000
opls_146-224    H    0.75266980    0.07811991    0.56311989    0.11470000
opls_146-225    H    0.84632016    0.96727979    0.52029984    0.11470000
opls_146-226    H    0.03558970    0.19437972    0.58635974    0.11960000
opls_146-227    H    0.94262963    0.30364027    0.62826989    0.11440000
