#======================================================================
# Crystal Data Generated By AuToFF
#----------------------------------------------------------------------

data_AuToFF_phase_1

_cell_length_a                         29.8330
_cell_length_b                         29.8330
_cell_length_c                         3.6214
_cell_angle_alpha                      90.00
_cell_angle_beta                       90.00
_cell_angle_gamma                      120.00
_symmetry_space_group_name_H-M_alt     'P 1'
_symmetry_space_group_IT_number        1

loop_
_space_group_symop_operation_xyz
   'x, y, z'

loop_
   _atom_site_label
   _atom_site_type_symbol
   _atom_site_fract_x
   _atom_site_fract_y
   _atom_site_fract_z
   _atom_site_charge
opls_145-0    C    0.37065999    0.64979985    0.00000000    -0.08420000
opls_142-1    C    0.40691009    0.63759989    0.00000000    0.09660000
opls_916-2    C    0.43921008    0.57681991    0.00000000    0.24060000
opls_145-3    C    0.48946994    0.61316977    0.00000000    -0.14660000
opls_145-4    C    0.55005991    0.53680000    0.00000000    -0.16770000
opls_147-5    C    0.51330008    0.55015997    0.00000000    0.03760000
opls_147-6    C    0.46305012    0.51325004    0.00000000    0.03740000
opls_145-7    C    0.52591000    0.59994992    0.00000000    -0.14440000
opls_145-8    C    0.42668010    0.52710002    0.00000000    -0.17120000
opls_280-9    C    0.38628987    0.70311974    0.00000000    0.31750000
opls_145-10    C    0.35020006    0.72086000    0.00000000    -0.08420000
opls_142-11    C    0.36240010    0.76930997    0.00000000    0.09660000
opls_916-12    C    0.42318007    0.86239005    0.00000000    0.24060000
opls_145-13    C    0.38683000    0.87630002    0.00000000    -0.14660000
opls_145-14    C    0.46319996    0.01326011    0.00000000    -0.16770000
opls_147-15    C    0.44984004    0.96314000    0.00000000    0.03760000
opls_147-16    C    0.48674985    0.94979978    0.00000000    0.03740000
opls_145-17    C    0.40004998    0.92595992    0.00000000    -0.14460000
opls_145-18    C    0.47289989    0.89957981    0.00000000    -0.17120000
opls_280-19    C    0.29688003    0.68316978    0.00000000    0.31750000
opls_145-20    C    0.27913976    0.62933975    0.00000000    -0.08420000
opls_142-21    C    0.23068995    0.59308976    0.00000000    0.09660000
opls_916-22    C    0.13761018    0.56079004    0.00000000    0.24060000
opls_145-23    C    0.12369987    0.51052982    0.00000000    -0.14660000
opls_145-24    C    0.98673980    0.44993989    0.00000000    -0.16770000
opls_147-25    C    0.03685988    0.48670003    0.00000000    0.03760000
opls_147-26    C    0.05019983    0.53694979    0.00000000    0.03740000
opls_145-27    C    0.07403983    0.47408978    0.00000000    -0.14440000
opls_145-28    C    0.10041982    0.57331978    0.00000000    -0.17120000
opls_280-29    C    0.31682972    0.61370971    0.00000000    0.31750000
opls_145-30    C    0.62933982    0.35019976    0.00000000    -0.08420000
opls_142-31    C    0.59308991    0.36240011    0.00000000    0.09660000
opls_916-32    C    0.56078992    0.42318009    0.00000000    0.24060000
opls_145-33    C    0.51052986    0.38682984    0.00000000    -0.14660000
opls_145-34    C    0.44994009    0.46320000    0.00000000    -0.16770000
opls_147-35    C    0.48669992    0.44984003    0.00000000    0.03760000
opls_147-36    C    0.53694988    0.48674996    0.00000000    0.03740000
opls_145-37    C    0.47409000    0.40005008    0.00000000    -0.14440000
opls_145-38    C    0.57331990    0.47289998    0.00000000    -0.17120000
opls_280-39    C    0.61370994    0.29687987    0.00000000    0.31760000
opls_145-40    C    0.64979994    0.27914000    0.00000000    -0.08420000
opls_142-41    C    0.63759990    0.23069003    0.00000000    0.09660000
opls_916-42    C    0.57681993    0.13760995    0.00000000    0.24060000
opls_145-43    C    0.61317000    0.12369998    0.00000000    -0.14650000
opls_145-44    C    0.53680004    0.98673989    0.00000000    -0.16760000
opls_147-45    C    0.55015996    0.03686000    0.00000000    0.03760000
opls_147-46    C    0.51324995    0.05019984    0.00000000    0.03740000
opls_145-47    C    0.59995002    0.07404008    0.00000000    -0.14460000
opls_145-48    C    0.52709992    0.10041980    0.00000000    -0.17120000
opls_280-49    C    0.70311978    0.31682984    0.00000000    0.31750000
opls_145-50    C    0.72086005    0.37065986    0.00000000    -0.08420000
opls_142-51    C    0.76930985    0.40690986    0.00000000    0.09660000
opls_916-52    C    0.86238982    0.43920996    0.00000000    0.24060000
opls_145-53    C    0.87629994    0.48946979    0.00000000    -0.16840000
opls_145-54    C    0.01326001    0.55005972    0.00000000    -0.16650000
opls_147-55    C    0.96314012    0.51329997    0.00000000    0.03770000
opls_147-56    C    0.94979997    0.46304982    0.00000000    0.03740000
opls_145-57    C    0.92595998    0.52590983    0.00000000    -0.14430000
opls_145-58    C    0.89957999    0.42667984    0.00000000    -0.17110000
opls_280-59    C    0.68317009    0.38628990    0.00000000    0.31750000
opls_238-60    N    0.39996015    0.58837001    0.00000000    -0.18900000
opls_238-61    N    0.41163009    0.81158989    0.00000000    -0.18910000
opls_238-62    N    0.18840989    0.60003971    0.00000000    -0.18910000
opls_238-63    N    0.60003985    0.41162999    0.00000000    -0.18910000
opls_238-64    N    0.58836991    0.18841011    0.00000000    -0.18900000
opls_238-65    N    0.81158991    0.39995990    0.00000000    -0.18910000
opls_281-66    O    0.43013976    0.73253977    0.00000000    -0.31840000
opls_281-67    O    0.26745985    0.69759995    0.00000000    -0.31840000
opls_281-68    O    0.30239986    0.56985989    0.00000000    -0.31830000
opls_281-69    O    0.56986005    0.26745985    0.00000000    -0.31840000
opls_281-70    O    0.73254015    0.30240005    0.00000000    -0.31840000
opls_281-71    O    0.69760014    0.43014011    0.00000000    -0.31830000
opls_144-72    H    0.44958987    0.67201989    0.00000000    0.02430000
opls_146-73    H    0.50700990    0.65822991    0.00000000    0.04380000
opls_146-74    H    0.59427985    0.56941981    0.00000000    0.04390000
opls_146-75    H    0.56984986    0.63317005    0.00000000    0.04390000
opls_146-76    H    0.38259994    0.49418992    0.00000000    0.04390000
opls_910-77    H    0.36210974    0.55397981    0.00000000    0.29540000
opls_144-78    H    0.32797971    0.77756971    0.00000000    0.02430000
opls_146-79    H    0.34176991    0.84878972    0.00000000    0.04380000
opls_146-80    H    0.43058010    0.02486014    0.00000000    0.04390000
opls_146-81    H    0.36682982    0.93668985    0.00000000    0.04390000
opls_146-82    H    0.50580983    0.88840980    0.00000000    0.04390000
opls_910-83    H    0.44600983    0.80811994    0.00000000    0.29540000
opls_144-84    H    0.22242989    0.55041001    0.00000000    0.02430000
opls_146-85    H    0.15121999    0.49299005    0.00000000    0.04380000
opls_146-86    H    0.97514005    0.40572005    0.00000000    0.04390000
opls_146-87    H    0.06330973    0.43014978    0.00000000    0.04390000
opls_146-88    H    0.11159003    0.61739989    0.00000000    0.04390000
opls_910-89    H    0.19187991    0.63789986    0.00000000    0.29550000
opls_144-90    H    0.55041013    0.32798011    0.00000000    0.02430000
opls_146-91    H    0.49299010    0.34177009    0.00000000    0.04380000
opls_146-92    H    0.40571996    0.43057980    0.00000000    0.04390000
opls_146-93    H    0.43015014    0.36682995    0.00000000    0.04390000
opls_146-94    H    0.61740006    0.50581008    0.00000000    0.04390000
opls_910-95    H    0.63789978    0.44600974    0.00000000    0.29540000
opls_144-96    H    0.67202010    0.22242990    0.00000000    0.02430000
opls_146-97    H    0.65822989    0.15120989    0.00000000    0.04380000
opls_146-98    H    0.56941989    0.97512980    0.00000000    0.04390000
opls_146-99    H    0.63317018    0.06331015    0.00000000    0.04390000
opls_146-100    H    0.49418997    0.11158981    0.00000000    0.04390000
opls_910-101    H    0.55399017    0.19188006    0.00000000    0.29550000
opls_144-102    H    0.77757011    0.44958999    0.00000000    0.02430000
opls_146-103    H    0.84879006    0.50700995    0.00000000    0.04380000
opls_146-104    H    0.02487001    0.59427995    0.00000000    0.04390000
opls_146-105    H    0.93669007    0.56984983    0.00000000    0.04390000
opls_146-106    H    0.88840997    0.38260011    0.00000000    0.04390000
opls_910-107    H    0.80811990    0.36209976    0.00000000    0.29540000
