#======================================================================
# Crystal Data Generated By AuToFF
#----------------------------------------------------------------------

data_AuToFF_phase_1

_cell_length_a                         26.4400
_cell_length_b                         26.4400
_cell_length_c                         3.4400
_cell_angle_alpha                      90.00
_cell_angle_beta                       90.00
_cell_angle_gamma                      120.00
_symmetry_space_group_name_H-M_alt     'P 1'
_symmetry_space_group_IT_number        1

loop_
_space_group_symop_operation_xyz
   'x, y, z'

loop_
   _atom_site_label
   _atom_site_type_symbol
   _atom_site_fract_x
   _atom_site_fract_y
   _atom_site_fract_z
   _atom_site_charge
opls_727-0    C    0.24342000    0.80619023    0.50000000    0.09790000
opls_727-1    C    0.19381025    0.43723019    0.50000000    0.09790000
opls_727-2    C    0.56276997    0.75658002    0.50000000    0.09790000
opls_727-3    C    0.27941016    0.78161004    0.50000000    0.10740000
opls_727-4    C    0.21839017    0.49780000    0.50000000    0.10740000
opls_727-5    C    0.50220005    0.72058996    0.50000000    0.10740000
opls_700-6    C    0.25643018    0.71974010    0.50000000    -0.09320000
opls_700-7    C    0.28025986    0.53668991    0.50000000    -0.09320000
opls_700-8    C    0.46330996    0.74356999    0.50000000    -0.09320000
opls_727-9    C    0.19378998    0.68548995    0.50000000    0.10780000
opls_727-10    C    0.31451004    0.50829013    0.50000000    0.10780000
opls_727-11    C    0.49171008    0.80620988    0.50000000    0.10780000
opls_727-12    C    0.15839002    0.71114011    0.50000000    0.09440000
opls_727-13    C    0.28885985    0.44724997    0.50000000    0.09440000
opls_727-14    C    0.55275012    0.84160993    0.50000000    0.09440000
opls_145-15    C    0.18332031    0.77139024    0.50000000    0.01730000
opls_145-16    C    0.22861027    0.41192023    0.50000000    0.01730000
opls_145-17    C    0.58808013    0.81667992    0.50000000    0.01730000
opls_700-18    C    0.29633000    0.69225001    0.50000000    0.05370000
opls_700-19    C    0.30774994    0.60408006    0.50000000    0.05370000
opls_700-20    C    0.39592006    0.70366993    0.50000000    0.05370000
opls_145-21    C    0.27353016    0.63135003    0.50000000    -0.09650000
opls_145-22    C    0.36865011    0.64217994    0.50000000    -0.09650000
opls_145-23    C    0.35782011    0.72647003    0.50000000    -0.09650000
opls_727-24    C    0.11438976    0.23116984    0.50000000    0.12110000
opls_727-25    C    0.76883022    0.88322020    0.50000000    0.12110000
opls_727-26    C    0.11678002    0.88560996    0.50000000    0.12110000
opls_727-27    C    0.07302989    0.17168005    0.50000000    0.10890000
opls_727-28    C    0.82831984    0.90134996    0.50000000    0.10890000
opls_727-29    C    0.09864990    0.92696999    0.50000000    0.10890000
opls_700-30    C    0.08908008    0.12743021    0.50000000    -0.09320000
opls_700-31    C    0.87257002    0.96164988    0.50000000    -0.09320000
opls_700-32    C    0.03834990    0.91091991    0.50000000    -0.09320000
opls_727-33    C    0.15097998    0.14922016    0.50000000    0.10880000
opls_727-34    C    0.85078015    0.00176000    0.50000000    0.10880000
opls_727-35    C    0.99824009    0.84902027    0.50000000    0.10880000
opls_727-36    C    0.19189985    0.20937989    0.50000000    0.12890000
opls_727-37    C    0.79062010    0.98252009    0.50000000    0.12890000
opls_727-38    C    0.01748004    0.80810002    0.50000000    0.12890000
opls_700-39    C    0.17409997    0.25033988    0.50000000    -0.12100000
opls_700-40    C    0.74966018    0.92375002    0.50000000    -0.12100000
opls_700-41    C    0.07625006    0.82591010    0.50000000    -0.12110000
opls_700-42    C    0.04282980    0.06136989    0.50000000    0.05360000
opls_700-43    C    0.93863012    0.98145011    0.50000000    0.05370000
opls_700-44    C    0.01854980    0.95716995    0.50000000    0.05370000
opls_145-45    C    0.98218005    0.04082985    0.50000000    -0.08770000
opls_145-46    C    0.95917010    0.94135003    0.50000000    -0.08800000
opls_145-47    C    0.05865023    0.01782012    0.50000000    -0.08800000
opls_142-48    C    0.09485023    0.78185024    0.50000000    0.05960000
opls_142-49    C    0.21815008    0.31299986    0.50000000    0.05960000
opls_142-50    C    0.68700007    0.90514990    0.50000000    0.05980000
opls_750-51    N    0.65030984    0.84960985    0.50000000    -0.35120000
opls_750-52    N    0.15039017    0.80070016    0.50000000    -0.33950000
opls_750-53    N    0.19929999    0.34968999    0.50000000    -0.35130000
opls_719-54    F    0.26716003    0.86491007    0.50000000    -0.08440000
opls_719-55    F    0.13508974    0.40224983    0.50000000    -0.08390000
opls_719-56    F    0.59775023    0.73284010    0.50000000    -0.08440000
opls_719-57    F    0.33659004    0.82032002    0.50000000    -0.08490000
opls_719-58    F    0.17968010    0.51628001    0.50000000    -0.08500000
opls_719-59    F    0.48372013    0.66341001    0.50000000    -0.08490000
opls_719-60    F    0.16480003    0.62709022    0.50000000    -0.08500000
opls_719-61    F    0.37291017    0.53770006    0.50000000    -0.08500000
opls_719-62    F    0.46230024    0.83521016    0.50000000    -0.08500000
opls_719-63    F    0.09966017    0.67733018    0.50000000    -0.11070000
opls_719-64    F    0.32266992    0.42233001    0.50000000    -0.11070000
opls_719-65    F    0.57767013    0.90034025    0.50000000    -0.11080000
opls_719-66    F    0.09551992    0.27012003    0.50000000    -0.08430000
opls_719-67    F    0.72987993    0.82538996    0.50000000    -0.08400000
opls_719-68    F    0.17460988    0.90447997    0.50000000    -0.08400000
opls_719-69    F    0.01754005    0.15967012    0.50000000    -0.08490000
opls_719-70    F    0.84032989    0.85787007    0.50000000    -0.08490000
opls_719-71    F    0.14213028    0.98246025    0.50000000    -0.08490000
opls_719-72    F    0.17388998    0.11413019    0.50000000    -0.09430000
opls_719-73    F    0.88587023    0.05976012    0.50000000    -0.09430000
opls_719-74    F    0.94024001    0.82611012    0.50000000    -0.09430000
opls_719-75    F    0.24991006    0.22909016    0.50000000    -0.09370000
opls_719-76    F    0.77090989    0.02080994    0.50000000    -0.08400000
opls_719-77    F    0.97918978    0.75008986    0.50000000    -0.09390000
opls_146-78    H    0.22869013    0.60507011    0.50000000    0.20940000
opls_146-79    H    0.39492990    0.62362000    0.50000000    0.20940000
opls_146-80    H    0.37637998    0.77130988    0.50000000    0.20940000
opls_146-81    H    0.96833006    0.07103986    0.50000000    0.20940000
opls_146-82    H    0.92896014    0.89729017    0.50000000    0.20940000
opls_146-83    H    0.10271018    0.03166998    0.50000000    0.20940000
opls_144-84    H    0.06227010    0.73546001    0.50000000    0.07970000
opls_144-85    H    0.26454012    0.32682002    0.50000000    0.07970000
opls_144-86    H    0.67318006    0.93773002    0.50000000    0.07930000
