#======================================================================
# Crystal Data Generated By AuToFF
#----------------------------------------------------------------------

data_AuToFF_phase_1

_cell_length_a                         14.9467
_cell_length_b                         14.9467
_cell_length_c                         3.4418
_cell_angle_alpha                      90.00
_cell_angle_beta                       90.00
_cell_angle_gamma                      120.00
_symmetry_space_group_name_H-M_alt     'P 1'
_symmetry_space_group_IT_number        1

loop_
_space_group_symop_operation_xyz
   'x, y, z'

loop_
   _atom_site_label
   _atom_site_type_symbol
   _atom_site_fract_x
   _atom_site_fract_y
   _atom_site_fract_z
   _atom_site_charge
opls_531-0    C    0.22941982    0.60033977    0.50000000    0.34370000
opls_145-1    C    0.10667975    0.35920975    0.50000000    -0.16340000
opls_145-2    C    0.05321994    0.25203991    0.50000000    -0.09580000
opls_700-3    C    0.94398989    0.36151039    0.50000000    0.03090000
opls_700-4    C    0.11226028    0.52870007    0.50000000    -0.03410000
opls_523-5    C    0.05320009    0.57738975    0.50000000    -0.18420000
opls_531-6    C    0.39965980    0.62908001    0.50000000    0.34370000
opls_145-7    C    0.64079008    0.74747030    0.50000000    -0.16340000
opls_145-8    C    0.74796032    0.80117999    0.50000000    -0.09580000
opls_700-9    C    0.63848992    0.58248006    0.50000000    0.03090000
opls_700-10    C    0.47129993    0.58356008    0.50000000    -0.03410000
opls_523-11    C    0.42261001    0.47581005    0.50000000    -0.18420000
opls_531-12    C    0.37092039    0.77058023    0.50000000    0.34370000
opls_145-13    C    0.25253017    0.89331995    0.50000000    -0.16340000
opls_145-14    C    0.19881975    0.94678011    0.50000000    -0.09580000
opls_700-15    C    0.41751991    0.05601033    0.50000000    0.03090000
opls_700-16    C    0.41643979    0.88773986    0.50000000    -0.03410000
opls_523-17    C    0.52418990    0.94680019    0.50000000    -0.18420000
opls_531-18    C    0.60034016    0.22941977    0.50000000    0.34370000
opls_145-19    C    0.35921022    0.10668005    0.50000000    -0.16340000
opls_145-20    C    0.25203964    0.05321989    0.50000000    -0.09580000
opls_700-21    C    0.36150996    0.94399045    0.50000000    0.03090000
opls_700-22    C    0.52869994    0.11226014    0.50000000    -0.03410000
opls_523-23    C    0.57738971    0.05319981    0.50000000    -0.18420000
opls_531-24    C    0.62908005    0.39966023    0.50000000    0.34370000
opls_145-25    C    0.74747000    0.64079025    0.50000000    -0.16340000
opls_145-26    C    0.80118003    0.74796009    0.50000000    -0.09580000
opls_700-27    C    0.58247989    0.63849038    0.50000000    0.03090000
opls_700-28    C    0.58356021    0.47129993    0.50000000    -0.03410000
opls_523-29    C    0.47581033    0.42261025    0.50000000    -0.18420000
opls_531-30    C    0.77057979    0.37091999    0.50000000    0.34380000
opls_145-31    C    0.89331979    0.25252970    0.50000000    -0.16340000
opls_145-32    C    0.94678033    0.19882001    0.50000000    -0.09580000
opls_700-33    C    0.05600987    0.41751994    0.50000000    0.03090000
opls_700-34    C    0.88773986    0.41643992    0.50000000    -0.03410000
opls_523-35    C    0.94679996    0.52418995    0.50000000    -0.18420000
opls_520-36    N    0.26883006    0.70360980    0.50000000    -0.38780000
opls_520-37    N    0.29639022    0.56521984    0.50000000    -0.38760000
opls_520-38    N    0.43478039    0.73117036    0.50000000    -0.38770000
opls_520-39    N    0.70361041    0.26883041    0.50000000    -0.38780000
opls_520-40    N    0.56522026    0.29639020    0.50000000    -0.38770000
opls_520-41    N    0.73117038    0.43478016    0.50000000    -0.38770000
opls_526-42    H    0.08833976    0.65957006    0.50000000    0.11430000
opls_146-43    H    0.18749004    0.39298003    0.50000000    0.25550000
opls_146-44    H    0.09491997    0.21007987    0.50000000    0.12080000
opls_526-45    H    0.34043009    0.42876975    0.50000000    0.11430000
opls_146-46    H    0.60701961    0.79450983    0.50000000    0.25550000
opls_146-47    H    0.78992036    0.88484049    0.50000000    0.12080000
opls_526-48    H    0.57123015    0.91166019    0.50000000    0.11430000
opls_146-49    H    0.20549035    0.81251014    0.50000000    0.25550000
opls_146-50    H    0.11516005    0.90508041    0.50000000    0.12080000
opls_526-51    H    0.65956996    0.08833981    0.50000000    0.11430000
opls_146-52    H    0.39298021    0.18748986    0.50000000    0.25550000
opls_146-53    H    0.21008002    0.09492036    0.50000000    0.12080000
opls_526-54    H    0.42876970    0.34042994    0.50000000    0.11430000
opls_146-55    H    0.79451000    0.60701997    0.50000000    0.25550000
opls_146-56    H    0.88484011    0.78992013    0.50000000    0.12080000
opls_526-57    H    0.91166034    0.57123025    0.50000000    0.11430000
opls_146-58    H    0.81250978    0.20549017    0.50000000    0.25550000
opls_146-59    H    0.90508026    0.11516028    0.50000000    0.12080000
