#======================================================================
# Crystal Data Generated By AuToFF
#----------------------------------------------------------------------

data_AuToFF_phase_1

_cell_length_a                         55.2000
_cell_length_b                         56.2000
_cell_length_c                         3.8300
_cell_angle_alpha                      90.00
_cell_angle_beta                       75.00
_cell_angle_gamma                      90.00
_symmetry_space_group_name_H-M_alt     'P 1'
_symmetry_space_group_IT_number        1

loop_
_space_group_symop_operation_xyz
   'x, y, z'

loop_
   _atom_site_label
   _atom_site_type_symbol
   _atom_site_fract_x
   _atom_site_fract_y
   _atom_site_fract_z
   _atom_site_charge
opls_700-0    C    0.44934003    0.52175996    0.45512907    0.02630000
opls_700-1    C    0.94934003    0.02175996    0.45512907    0.02630000
opls_700-2    C    0.55066002    0.52175996    0.54486823    0.02630000
opls_700-3    C    0.05066002    0.02175996    0.54486823    0.02630000
opls_700-4    C    0.55066002    0.47824004    0.54486823    0.02630000
opls_700-5    C    0.05066002    0.97824004    0.54486823    0.02630000
opls_700-6    C    0.44934003    0.47824004    0.45512907    0.02630000
opls_700-7    C    0.94934003    0.97824004    0.45512907    0.02630000
opls_700-8    C    0.47467992    0.52189004    0.47493986    0.02770000
opls_700-9    C    0.97467992    0.02189004    0.47493986    0.02770000
opls_700-10    C    0.52531990    0.52189004    0.52506014    0.02770000
opls_700-11    C    0.02531990    0.02189004    0.52506014    0.02770000
opls_700-12    C    0.52531990    0.47810996    0.52506014    0.02770000
opls_700-13    C    0.02531990    0.97810996    0.52506014    0.02770000
opls_700-14    C    0.47467992    0.47810996    0.47493986    0.02770000
opls_700-15    C    0.97467992    0.97810996    0.47493986    0.02770000
opls_145-16    C    0.48763996    0.54314004    0.49143938    -0.17930000
opls_145-17    C    0.98763996    0.04314004    0.49143938    -0.17930000
opls_145-18    C    0.51236004    0.54314004    0.50856062    -0.16500000
opls_145-19    C    0.01236004    0.04314004    0.50856062    -0.17920000
opls_145-20    C    0.51236004    0.45685996    0.50856062    -0.16490000
opls_145-21    C    0.01236004    0.95685996    0.50856062    -0.17930000
opls_145-22    C    0.48763996    0.45685996    0.49143938    -0.17930000
opls_145-23    C    0.98763996    0.95685996    0.49143938    -0.17930000
opls_700-24    C    0.43313992    0.54335996    0.49342884    0.06520000
opls_700-25    C    0.93313992    0.04335996    0.49342884    0.06520000
opls_700-26    C    0.56685994    0.54335996    0.50656846    0.06520000
opls_700-27    C    0.06685994    0.04335996    0.50656846    0.06520000
opls_700-28    C    0.56685994    0.45664004    0.50656846    0.06520000
opls_700-29    C    0.06685994    0.95664004    0.50656846    0.06520000
opls_700-30    C    0.43313992    0.45664004    0.49342884    0.06520000
opls_700-31    C    0.93313992    0.95664004    0.49342884    0.06520000
opls_145-32    C    0.55958998    0.56369004    0.72100014    -0.12410000
opls_145-33    C    0.05958998    0.06369004    0.72100014    -0.12410000
opls_145-34    C    0.44041002    0.56369004    0.27899986    -0.12410000
opls_145-35    C    0.94041002    0.06369004    0.27899986    -0.12410000
opls_145-36    C    0.44041002    0.43630996    0.27899986    -0.12410000
opls_145-37    C    0.94041002    0.93630996    0.27899986    -0.12410000
opls_145-38    C    0.55958998    0.43630996    0.72100014    -0.12410000
opls_145-39    C    0.05958998    0.93630996    0.72100014    -0.12410000
opls_145-40    C    0.57527994    0.58351993    0.68141911    -0.18350000
opls_145-41    C    0.07527994    0.08351993    0.68141911    -0.18350000
opls_145-42    C    0.42472006    0.58351993    0.31858089    -0.18080000
opls_145-43    C    0.92472006    0.08351993    0.31858089    -0.18080000
opls_145-44    C    0.42472006    0.41648007    0.31858089    -0.18070000
opls_145-45    C    0.92472006    0.91648007    0.31858089    -0.17510000
opls_145-46    C    0.57527994    0.41648007    0.68141911    -0.18350000
opls_145-47    C    0.07527994    0.91648007    0.68141911    -0.17510000
opls_145-48    C    0.59904992    0.58296993    0.43644006    0.18040000
opls_145-49    C    0.09904992    0.08296993    0.43644006    0.18050000
opls_145-50    C    0.40094990    0.58296993    0.56355994    0.18060000
opls_145-51    C    0.90094990    0.08296993    0.56355994    0.18060000
opls_145-52    C    0.40094990    0.41703007    0.56355994    0.18060000
opls_145-53    C    0.90094990    0.91703007    0.56355994    0.18060000
opls_145-54    C    0.59904992    0.41703007    0.43644006    0.18040000
opls_145-55    C    0.09904992    0.91703007    0.43644006    0.18040000
opls_145-56    C    0.60690995    0.56245996    0.23399108    -0.18780000
opls_145-57    C    0.10690995    0.06245996    0.23399108    -0.18780000
opls_145-58    C    0.39309005    0.56245996    0.76600892    -0.18780000
opls_145-59    C    0.89309005    0.06245996    0.76600892    -0.18770000
opls_145-60    C    0.39309005    0.43754004    0.76600892    -0.18780000
opls_145-61    C    0.89309005    0.93754004    0.76600892    -0.18090000
opls_145-62    C    0.60690995    0.43754004    0.23399108    -0.18780000
opls_145-63    C    0.10690995    0.93754004    0.23399108    -0.18090000
opls_145-64    C    0.59085993    0.54295996    0.26344911    -0.13770000
opls_145-65    C    0.09085993    0.04295996    0.26344911    -0.13770000
opls_145-66    C    0.40913994    0.54295996    0.73654818    -0.13770000
opls_145-67    C    0.90913994    0.04295996    0.73654818    -0.13770000
opls_145-68    C    0.40913994    0.45704004    0.73654818    -0.13760000
opls_145-69    C    0.90913994    0.95705000    0.73654818    -0.13770000
opls_145-70    C    0.59085993    0.45704004    0.26344911    -0.13770000
opls_145-71    C    0.09085993    0.95705000    0.26344911    -0.13770000
opls_142-72    C    0.60998000    0.62449004    0.45465874    0.06600000
opls_142-73    C    0.10998000    0.12449004    0.45465874    0.06600000
opls_142-74    C    0.39002005    0.62449004    0.54533856    0.06600000
opls_142-75    C    0.89002005    0.12449004    0.54533856    0.06600000
opls_142-76    C    0.39002005    0.37550996    0.54533856    0.06600000
opls_142-77    C    0.89002005    0.87550996    0.54533856    0.06600000
opls_142-78    C    0.60998000    0.37550996    0.45465874    0.06600000
opls_142-79    C    0.10998000    0.87550996    0.45465874    0.06600000
opls_700-80    C    0.62926990    0.64271993    0.44128936    0.04890000
opls_700-81    C    0.12926990    0.14271993    0.44128936    0.04900000
opls_700-82    C    0.37072993    0.64271993    0.55869982    0.04900000
opls_700-83    C    0.87072993    0.14271993    0.55869982    0.04900000
opls_700-84    C    0.37072993    0.35728007    0.55869982    0.04900000
opls_700-85    C    0.87072993    0.85728007    0.55869982    0.04900000
opls_700-86    C    0.62926990    0.35728007    0.44128936    0.04890000
opls_700-87    C    0.12926990    0.85728007    0.44128936    0.04900000
opls_145-88    C    0.62360994    0.66679004    0.40913907    -0.12600000
opls_145-89    C    0.12360994    0.16679004    0.40913907    -0.12600000
opls_145-90    C    0.37638993    0.66679004    0.59085822    -0.12600000
opls_145-91    C    0.87638993    0.16679004    0.59085822    -0.12600000
opls_145-92    C    0.37638993    0.33320996    0.59085822    -0.12600000
opls_145-93    C    0.87638993    0.83320996    0.59085822    -0.12600000
opls_145-94    C    0.62360994    0.33320996    0.40913907    -0.12600000
opls_145-95    C    0.12360994    0.83320996    0.40913907    -0.12600000
opls_145-96    C    0.64182004    0.68420000    0.40088931    -0.13560000
opls_145-97    C    0.14182004    0.18420000    0.40088931    -0.13560000
opls_145-98    C    0.35818000    0.68420000    0.59910799    -0.13560000
opls_145-99    C    0.85818000    0.18420000    0.59910799    -0.13560000
opls_145-100    C    0.35818000    0.31580000    0.59910799    -0.13560000
opls_145-101    C    0.85818000    0.81580000    0.59910799    -0.13560000
opls_145-102    C    0.64182004    0.31580000    0.40088931    -0.13560000
opls_145-103    C    0.14182004    0.81580000    0.40088931    -0.13560000
opls_700-104    C    0.66588999    0.67774004    0.42726855    0.06140000
opls_700-105    C    0.16588999    0.17774004    0.42726855    0.06140000
opls_700-106    C    0.33411006    0.67774004    0.57272875    0.06140000
opls_700-107    C    0.83411006    0.17774004    0.57272875    0.06140000
opls_700-108    C    0.33411006    0.32225996    0.57272875    0.06140000
opls_700-109    C    0.83411006    0.82225996    0.57272875    0.06140000
opls_700-110    C    0.66588999    0.32225996    0.42726855    0.06140000
opls_700-111    C    0.16588999    0.82225996    0.42726855    0.06140000
opls_145-112    C    0.67139006    0.65360996    0.46221922    -0.12820000
opls_145-113    C    0.17139006    0.15360996    0.46221922    -0.12820000
opls_145-114    C    0.32860999    0.65360996    0.53777808    -0.12820000
opls_145-115    C    0.82860999    0.15360996    0.53777808    -0.12820000
opls_145-116    C    0.32860999    0.34639004    0.53777808    -0.12820000
opls_145-117    C    0.82860999    0.84639004    0.53777808    -0.12820000
opls_145-118    C    0.67139006    0.34639004    0.46221922    -0.12820000
opls_145-119    C    0.17139006    0.84639004    0.46221922    -0.12820000
opls_145-120    C    0.65326996    0.63625996    0.46800919    -0.12820000
opls_145-121    C    0.15327992    0.13625996    0.46800919    -0.12820000
opls_145-122    C    0.34671994    0.63625996    0.53198811    -0.12820000
opls_145-123    C    0.84671994    0.13625996    0.53198811    -0.12820000
opls_145-124    C    0.34671994    0.36374004    0.53198811    -0.12820000
opls_145-125    C    0.84671994    0.86374004    0.53198811    -0.12820000
opls_145-126    C    0.65326996    0.36374004    0.46800919    -0.12820000
opls_145-127    C    0.15327992    0.86374004    0.46800919    -0.12820000
opls_700-128    C    0.68524005    0.69595000    0.42423841    0.06150000
opls_700-129    C    0.18524005    0.19595000    0.42423841    0.06150000
opls_700-130    C    0.31476000    0.69595000    0.57575889    0.06150000
opls_700-131    C    0.81476000    0.19595000    0.57575889    0.06150000
opls_700-132    C    0.31476000    0.30405000    0.57575889    0.06060000
opls_700-133    C    0.81476000    0.80405000    0.57575889    0.06060000
opls_700-134    C    0.68524005    0.30405000    0.42423841    0.06060000
opls_700-135    C    0.18524005    0.80405000    0.42423841    0.06060000
opls_591-136    C    0.71038998    0.69180996    0.23127990    -0.13740000
opls_591-137    C    0.21038998    0.19180996    0.23127990    -0.13740000
opls_591-138    C    0.28961002    0.69180996    0.76872010    -0.13740000
opls_591-139    C    0.78961002    0.19180996    0.76872010    -0.13730000
opls_591-140    C    0.28961002    0.30819004    0.76872010    -0.13740000
opls_591-141    C    0.78961002    0.80819004    0.76872010    -0.13740000
opls_591-142    C    0.71038998    0.30819004    0.23127990    -0.13740000
opls_591-143    C    0.21038998    0.80819004    0.23127990    -0.13740000
opls_590-144    C    0.72914997    0.70844004    0.23814840    -0.12650000
opls_590-145    C    0.22914997    0.20844004    0.23814840    -0.12650000
opls_590-146    C    0.27084990    0.70844004    0.76184890    -0.12650000
opls_590-147    C    0.77084990    0.20844004    0.76184890    -0.12650000
opls_590-148    C    0.27084990    0.29155996    0.76184890    -0.12650000
opls_590-149    C    0.77084990    0.79155996    0.76184890    -0.12650000
opls_590-150    C    0.72914997    0.29155996    0.23814840    -0.12650000
opls_590-151    C    0.22914997    0.79155996    0.23814840    -0.12650000
opls_700-152    C    0.72270003    0.72875000    0.45306933    -0.00690000
opls_700-153    C    0.22269006    0.22875000    0.45306933    -0.00930000
opls_700-154    C    0.27729997    0.72875000    0.54693067    -0.00690000
opls_700-155    C    0.77730994    0.22875000    0.54693067    -0.00930000
opls_700-156    C    0.27729997    0.27125000    0.54693067    -0.00690000
opls_700-157    C    0.77730994    0.77125000    0.54693067    -0.00930000
opls_700-158    C    0.72270003    0.27125000    0.45306933    -0.00690000
opls_700-159    C    0.22269006    0.77125000    0.45306933    -0.00930000
opls_594-160    C    0.69784993    0.73379004    0.61634816    0.13490000
opls_594-161    C    0.19784993    0.23379004    0.61634816    0.13470000
opls_594-162    C    0.30214993    0.73379004    0.38364914    0.13490000
opls_594-163    C    0.80214993    0.23379004    0.38364914    0.13470000
opls_594-164    C    0.30214993    0.26620996    0.38364914    0.13450000
opls_594-165    C    0.80214993    0.76621993    0.38364914    0.13450000
opls_594-166    C    0.69784993    0.26620996    0.61634816    0.13450000
opls_594-167    C    0.19784993    0.76621993    0.61634816    0.13450000
opls_593-168    C    0.67883995    0.71763007    0.60959049    -0.19180000
opls_593-169    C    0.17883995    0.21763007    0.60959049    -0.19180000
opls_593-170    C    0.32116005    0.71763007    0.39040951    -0.19180000
opls_593-171    C    0.82116005    0.21763007    0.39040951    -0.19180000
opls_593-172    C    0.32116005    0.28238007    0.39040951    -0.19180000
opls_593-173    C    0.82116005    0.78238007    0.39040951    -0.19460000
opls_593-174    C    0.67883995    0.28238007    0.60959049    -0.19180000
opls_593-175    C    0.17883995    0.78238007    0.60959049    -0.19460000
opls_234-176    C    0.71803006    0.23270996    0.65458846    0.40970000
opls_234-177    C    0.21803006    0.73270996    0.65458846    0.40970000
opls_234-178    C    0.28196998    0.23270996    0.34540884    0.40980000
opls_234-179    C    0.78196998    0.73270996    0.34540884    0.40970000
opls_234-180    C    0.28196998    0.76729004    0.34540884    0.40970000
opls_234-181    C    0.78196998    0.26729004    0.34540884    0.40970000
opls_234-182    C    0.71803006    0.76729004    0.65458846    0.40980000
opls_234-183    C    0.21803006    0.26729004    0.65458846    0.40970000
opls_716-184    C    0.73758005    0.25058007    0.50882822    -0.08790000
opls_716-185    C    0.23759001    0.75058007    0.50882822    -0.08620000
opls_716-186    C    0.26242000    0.25058007    0.49116908    -0.08790000
opls_716-187    C    0.76241003    0.75058007    0.49116908    -0.08620000
opls_716-188    C    0.26242000    0.74941993    0.49116908    -0.08790000
opls_716-189    C    0.76241003    0.24941993    0.49116908    -0.08620000
opls_716-190    C    0.73758005    0.74941993    0.50882822    -0.08790000
opls_716-191    C    0.23759001    0.24941993    0.50882822    -0.08620000
opls_245-192    C    0.67013990    0.23199004    0.93814840    -0.05630000
opls_245-193    C    0.17013990    0.73199004    0.93814840    -0.05630000
opls_245-194    C    0.32985997    0.23199004    0.06184890    -0.05370000
opls_245-195    C    0.82985997    0.73199004    0.06184890    -0.05370000
opls_245-196    C    0.32985997    0.76800996    0.06184890    -0.05630000
opls_245-197    C    0.82985997    0.26800996    0.06184890    -0.05620000
opls_245-198    C    0.67013990    0.76800996    0.93814840    -0.05630000
opls_245-199    C    0.17013990    0.26800996    0.93814840    -0.05630000
opls_136-200    C    0.67204009    0.20603007    0.05066901    -0.19580000
opls_136-201    C    0.17204009    0.70603007    0.05066901    -0.19580000
opls_136-202    C    0.32796992    0.20603007    0.94932829    -0.19800000
opls_136-203    C    0.82796992    0.70603007    0.94932829    -0.19810000
opls_136-204    C    0.32796992    0.79398007    0.94932829    -0.19580000
opls_136-205    C    0.82796992    0.29398007    0.94932829    -0.19580000
opls_136-206    C    0.67204009    0.79398007    0.05066901    -0.19570000
opls_136-207    C    0.17204009    0.29398007    0.05066901    -0.19580000
opls_136-208    C    0.64618000    0.19588007    0.24161103    -0.13130000
opls_136-209    C    0.14618000    0.69588007    0.24161103    -0.13130000
opls_136-210    C    0.35382000    0.19588007    0.75838897    -0.12790000
opls_136-211    C    0.85382000    0.69588007    0.75838897    -0.13130000
opls_136-212    C    0.35382000    0.80411993    0.75838897    -0.12790000
opls_136-213    C    0.85382000    0.30411993    0.75838897    -0.12780000
opls_136-214    C    0.64618000    0.80411993    0.24161103    -0.13130000
opls_136-215    C    0.14618000    0.30411993    0.24161103    -0.13120000
opls_135-216    C    0.64852997    0.16985000    0.34433842    -0.42170000
opls_135-217    C    0.14852997    0.66985000    0.34433842    -0.42170000
opls_135-218    C    0.35146990    0.16985000    0.65565887    -0.42170000
opls_135-219    C    0.85146990    0.66985000    0.65565887    -0.42170000
opls_135-220    C    0.35146990    0.83015000    0.65565887    -0.42170000
opls_135-221    C    0.85146990    0.33015000    0.65565887    -0.42170000
opls_135-222    C    0.64852997    0.83015000    0.34433842    -0.42170000
opls_135-223    C    0.14852997    0.33015000    0.34433842    -0.42170000
opls_700-224    C    0.48736989    0.50000000    0.48490066    0.00600000
opls_700-225    C    0.98736989    0.00000000    0.48490066    0.00600000
opls_700-226    C    0.51262993    0.50000000    0.51509934    0.00600000
opls_700-227    C    0.01262993    0.00000000    0.51509934    0.00600000
opls_145-228    C    0.43772998    0.50000000    0.42933910    -0.11430000
opls_145-229    C    0.93772998    0.00000000    0.42933910    -0.11440000
opls_145-230    C    0.56227007    0.50000000    0.57065820    -0.11440000
opls_145-231    C    0.06227007    0.00000000    0.57065820    -0.11440000
opls_146-232    H    0.47912994    0.56033007    0.49216921    0.08980000
opls_146-233    H    0.97912994    0.06033007    0.49216921    0.08970000
opls_146-234    H    0.52088003    0.56033007    0.50783079    0.08970000
opls_146-235    H    0.02086988    0.06033007    0.50783079    0.08970000
opls_146-236    H    0.52088003    0.43966993    0.50783079    0.08970000
opls_146-237    H    0.02086988    0.93966993    0.50783079    0.08970000
opls_146-238    H    0.47912994    0.43966993    0.49216921    0.08970000
opls_146-239    H    0.97912994    0.93966993    0.49216921    0.08970000
opls_146-240    H    0.54198993    0.56413007    0.92347885    0.21150000
opls_146-241    H    0.04198993    0.06413007    0.92347885    0.21160000
opls_146-242    H    0.45800989    0.56413007    0.07652115    0.21160000
opls_146-243    H    0.95800989    0.06413007    0.07652115    0.21150000
opls_146-244    H    0.45800989    0.43586993    0.07652115    0.21150000
opls_146-245    H    0.95800989    0.93586993    0.07652115    0.21150000
opls_146-246    H    0.54198993    0.43586993    0.92347885    0.21150000
opls_146-247    H    0.04198993    0.93586993    0.92347885    0.21170000
opls_146-248    H    0.56944002    0.59875996    0.85521827    0.10950000
opls_146-249    H    0.06944002    0.09875996    0.85521827    0.10950000
opls_146-250    H    0.43056003    0.59875996    0.14477902    0.10950000
opls_146-251    H    0.93056003    0.09875996    0.14477902    0.10950000
opls_146-252    H    0.43056003    0.40124004    0.14477902    0.10950000
opls_146-253    H    0.93056003    0.90125000    0.14477902    0.11220000
opls_146-254    H    0.56944002    0.40124004    0.85521827    0.10950000
opls_146-255    H    0.06944002    0.90125000    0.85521827    0.11220000
opls_146-256    H    0.62532008    0.56198007    0.04686039    0.11160000
opls_146-257    H    0.12532008    0.06198007    0.04686039    0.11160000
opls_146-258    H    0.37467992    0.56198007    0.95313961    0.11160000
opls_146-259    H    0.87467992    0.06198007    0.95313961    0.11160000
opls_146-260    H    0.37467992    0.43801993    0.95313961    0.11160000
opls_146-261    H    0.87467992    0.93801993    0.95313961    0.11160000
opls_146-262    H    0.62532008    0.43801993    0.04686039    0.11160000
opls_146-263    H    0.12532008    0.93801993    0.04686039    0.11160000
opls_146-264    H    0.59707001    0.52758007    0.09329909    0.10580000
opls_146-265    H    0.09707001    0.02758007    0.09329909    0.10570000
opls_146-266    H    0.40293004    0.52758007    0.90669820    0.10570000
opls_146-267    H    0.90293004    0.02758007    0.90669820    0.10570000
opls_146-268    H    0.40293004    0.47241993    0.90669820    0.10570000
opls_146-269    H    0.90293004    0.97241993    0.90669820    0.10760000
opls_146-270    H    0.59707001    0.47241993    0.09329909    0.10580000
opls_146-271    H    0.09707001    0.97241993    0.09329909    0.10760000
opls_144-272    H    0.59059998    0.62991993    0.49756994    0.08880000
opls_144-273    H    0.09059998    0.12991993    0.49756994    0.08880000
opls_144-274    H    0.40940003    0.62991993    0.50241925    0.08870000
opls_144-275    H    0.90940003    0.12991993    0.50241925    0.08870000
opls_144-276    H    0.40940003    0.37008007    0.50241925    0.08870000
opls_144-277    H    0.90940003    0.87008007    0.50241925    0.08870000
opls_144-278    H    0.59059998    0.37008007    0.49756994    0.08870000
opls_144-279    H    0.09059998    0.87008007    0.49756994    0.08870000
opls_146-280    H    0.60520999    0.67206993    0.38657927    0.10720000
opls_146-281    H    0.10520999    0.17206993    0.38657927    0.10720000
opls_146-282    H    0.39479005    0.67206993    0.61341803    0.10720000
opls_146-283    H    0.89479005    0.17206993    0.61341803    0.10720000
opls_146-284    H    0.39479005    0.32794004    0.61341803    0.10730000
opls_146-285    H    0.89479005    0.82794004    0.61341803    0.10730000
opls_146-286    H    0.60520999    0.32794004    0.38657927    0.10740000
opls_146-287    H    0.10520999    0.82794004    0.38657927    0.10730000
opls_146-288    H    0.63723009    0.70265000    0.36919854    0.11160000
opls_146-289    H    0.13723009    0.20265000    0.36919854    0.11170000
opls_146-290    H    0.36277989    0.70265000    0.63079065    0.10840000
opls_146-291    H    0.86277989    0.20265000    0.63079065    0.10840000
opls_146-292    H    0.36277989    0.29735000    0.63079065    0.10840000
opls_146-293    H    0.86277989    0.79735000    0.63079065    0.10840000
opls_146-294    H    0.63723009    0.29735000    0.36919854    0.11160000
opls_146-295    H    0.13723009    0.79735000    0.36919854    0.11160000
opls_146-296    H    0.68957006    0.64824004    0.49273956    0.10720000
opls_146-297    H    0.18957006    0.14824004    0.49273956    0.10720000
opls_146-298    H    0.31042994    0.64824004    0.50726044    0.10720000
opls_146-299    H    0.81042994    0.14824004    0.50726044    0.10720000
opls_146-300    H    0.31042994    0.35175996    0.50726044    0.10720000
opls_146-301    H    0.81042994    0.85175996    0.50726044    0.10720000
opls_146-302    H    0.68957006    0.35175996    0.49273956    0.10720000
opls_146-303    H    0.18957006    0.85175996    0.49273956    0.10720000
opls_146-304    H    0.65780005    0.61776993    0.50025949    0.10450000
opls_146-305    H    0.15780005    0.11776993    0.50025949    0.10700000
opls_146-306    H    0.34219995    0.61776993    0.49974051    0.10700000
opls_146-307    H    0.84219995    0.11776993    0.49974051    0.10700000
opls_146-308    H    0.34219995    0.38223007    0.49974051    0.10710000
opls_146-309    H    0.84219995    0.88223007    0.49974051    0.10700000
opls_146-310    H    0.65780005    0.38223007    0.50025949    0.10450000
opls_146-311    H    0.15780005    0.88223007    0.50025949    0.10700000
opls_600-312    H    0.71533004    0.67605000    0.06527098    0.10700000
opls_600-313    H    0.21533004    0.17605000    0.06527098    0.10700000
opls_600-314    H    0.28466996    0.67605000    0.93472902    0.10700000
opls_600-315    H    0.78466996    0.17605000    0.93472902    0.10700000
opls_600-316    H    0.28466996    0.32395000    0.93472902    0.10700000
opls_600-317    H    0.78466996    0.82395000    0.93472902    0.10700000
opls_600-318    H    0.71533004    0.32395000    0.06527098    0.10700000
opls_600-319    H    0.21533004    0.82395000    0.06527098    0.10700000
opls_599-320    H    0.74768007    0.70581993    0.06185971    0.11130000
opls_599-321    H    0.24768007    0.20581993    0.06185971    0.11130000
opls_599-322    H    0.25231993    0.70581993    0.93814029    0.11130000
opls_599-323    H    0.75231993    0.20581993    0.93814029    0.11130000
opls_599-324    H    0.25231993    0.29418007    0.93814029    0.11130000
opls_599-325    H    0.75231993    0.79418007    0.93814029    0.11130000
opls_599-326    H    0.74768007    0.29418007    0.06185971    0.11140000
opls_599-327    H    0.24768007    0.79418007    0.06185971    0.11130000
opls_602-328    H    0.65963991    0.72170996    0.74793891    0.11110000
opls_602-329    H    0.15963991    0.22170996    0.74793891    0.11110000
opls_602-330    H    0.34035996    0.72170996    0.25205839    0.11110000
opls_602-331    H    0.84035996    0.22170996    0.25205839    0.11110000
opls_602-332    H    0.34035996    0.27829004    0.25205839    0.11110000
opls_602-333    H    0.84035996    0.77829004    0.25205839    0.11110000
opls_602-334    H    0.65963991    0.27829004    0.74793891    0.11110000
opls_602-335    H    0.15963991    0.77829004    0.74793891    0.11110000
opls_140-336    H    0.65707993    0.23325996    0.76383836    0.07280000
opls_140-337    H    0.15707993    0.73325996    0.76383836    0.07280000
opls_140-338    H    0.34291993    0.23325996    0.23615894    0.07280000
opls_140-339    H    0.84291993    0.73325996    0.23615894    0.07280000
opls_140-340    H    0.34291993    0.76674004    0.23615894    0.07280000
opls_140-341    H    0.84291993    0.26674004    0.23615894    0.07280000
opls_140-342    H    0.65707993    0.76674004    0.76383836    0.07280000
opls_140-343    H    0.15707993    0.26674004    0.76383836    0.07280000
opls_140-344    H    0.66190998    0.24291993    0.18118935    0.05100000
opls_140-345    H    0.16190998    0.74291993    0.18118935    0.05100000
opls_140-346    H    0.33809002    0.24291993    0.81881065    0.05100000
opls_140-347    H    0.83809002    0.74291993    0.81881065    0.05100000
opls_140-348    H    0.33809002    0.75708007    0.81881065    0.05100000
opls_140-349    H    0.83809002    0.25708007    0.81881065    0.05100000
opls_140-350    H    0.66190998    0.75708007    0.18118935    0.05100000
opls_140-351    H    0.16190998    0.25708007    0.18118935    0.05100000
opls_140-352    H    0.68527999    0.20505000    0.22538992    0.11470000
opls_140-353    H    0.18527999    0.70505000    0.22538992    0.11470000
opls_140-354    H    0.31472001    0.20505000    0.77461008    0.11230000
opls_140-355    H    0.81472001    0.70505000    0.77461008    0.11230000
opls_140-356    H    0.31472001    0.79495000    0.77461008    0.11230000
opls_140-357    H    0.81472001    0.29495000    0.77461008    0.11230000
opls_140-358    H    0.68527999    0.79495000    0.22538992    0.11470000
opls_140-359    H    0.18527999    0.29495000    0.22538992    0.11470000
opls_140-360    H    0.68044991    0.19500000    0.81029058    0.10490000
opls_140-361    H    0.18044991    0.69500000    0.81029058    0.10490000
opls_140-362    H    0.31954991    0.19500000    0.18970942    0.11570000
opls_140-363    H    0.81954991    0.69500000    0.18970942    0.11570000
opls_140-364    H    0.31954991    0.80500000    0.18970942    0.10500000
opls_140-365    H    0.81954991    0.30500000    0.18970942    0.10490000
opls_140-366    H    0.68044991    0.80500000    0.81029058    0.09930000
opls_140-367    H    0.18044991    0.30500000    0.81029058    0.09930000
opls_140-368    H    0.63318002    0.19700996    0.06397081    0.07820000
opls_140-369    H    0.13318002    0.69700996    0.06397081    0.07820000
opls_140-370    H    0.36681998    0.19700996    0.93602919    0.07820000
opls_140-371    H    0.86681998    0.69700996    0.93602919    0.07820000
opls_140-372    H    0.36681998    0.80299004    0.93602919    0.07820000
opls_140-373    H    0.86681998    0.30299004    0.93602919    0.07820000
opls_140-374    H    0.63318002    0.80299004    0.06397081    0.07820000
opls_140-375    H    0.13318002    0.30299004    0.06397081    0.07820000
opls_140-376    H    0.63750995    0.20658007    0.48503041    0.10310000
opls_140-377    H    0.13750995    0.70658007    0.48503041    0.10300000
opls_140-378    H    0.36249005    0.20658007    0.51496959    0.10300000
opls_140-379    H    0.86250002    0.70658007    0.51496959    0.10300000
opls_140-380    H    0.36249005    0.79341993    0.51496959    0.10310000
opls_140-381    H    0.86250002    0.29341993    0.51496959    0.10300000
opls_140-382    H    0.63750995    0.79341993    0.48503041    0.10300000
opls_140-383    H    0.13750995    0.29341993    0.48503041    0.10300000
opls_140-384    H    0.66364007    0.16745000    0.48400865    0.15850000
opls_140-385    H    0.16364007    0.66745000    0.48400865    0.15850000
opls_140-386    H    0.33635998    0.16745000    0.51598865    0.15850000
opls_140-387    H    0.83635998    0.66745000    0.51598865    0.15850000
opls_140-388    H    0.33635998    0.83255000    0.51598865    0.15850000
opls_140-389    H    0.83635998    0.33255000    0.51598865    0.15850000
opls_140-390    H    0.66364007    0.83255000    0.48400865    0.15850000
opls_140-391    H    0.16364007    0.33255000    0.48400865    0.15850000
opls_140-392    H    0.65301992    0.15830996    0.10082984    0.15770000
opls_140-393    H    0.15301992    0.65830996    0.10082984    0.15780000
opls_140-394    H    0.34697990    0.15830996    0.89917016    0.15780000
opls_140-395    H    0.84697990    0.65830996    0.89917016    0.15780000
opls_140-396    H    0.34697990    0.84169004    0.89917016    0.15780000
opls_140-397    H    0.84697990    0.34169004    0.89917016    0.15780000
opls_140-398    H    0.65301992    0.84169004    0.10082984    0.15770000
opls_140-399    H    0.15301992    0.34169004    0.10082984    0.15770000
opls_140-400    H    0.63058988    0.16354004    0.52656035    0.15560000
opls_140-401    H    0.13058988    0.66354004    0.52656035    0.15560000
opls_140-402    H    0.36940994    0.16354004    0.47343965    0.15560000
opls_140-403    H    0.86940994    0.66354004    0.47343965    0.15560000
opls_140-404    H    0.36940994    0.83645996    0.47343965    0.15560000
opls_140-405    H    0.86940994    0.33645996    0.47343965    0.15560000
opls_140-406    H    0.63058988    0.83645996    0.52656035    0.15560000
opls_140-407    H    0.13058988    0.33645996    0.52656035    0.15570000
opls_146-408    H    0.41866999    0.50000000    0.40168942    0.10660000
opls_146-409    H    0.91866999    0.00000000    0.40168942    0.10660000
opls_146-410    H    0.58133001    0.50000000    0.59831058    0.10660000
opls_146-411    H    0.08133001    0.00000000    0.59831058    0.10660000
opls_750-412    N    0.61630990    0.60225000    0.40781998    -0.37670000
opls_750-413    N    0.11630990    0.10225000    0.40781998    -0.37670000
opls_750-414    N    0.38369989    0.60225000    0.59218002    -0.32030000
opls_750-415    N    0.88369989    0.10225000    0.59218002    -0.32040000
opls_750-416    N    0.38369989    0.39775000    0.59218002    -0.32040000
opls_750-417    N    0.88369989    0.89775000    0.59218002    -0.32040000
opls_750-418    N    0.61630990    0.39775000    0.40781998    -0.37670000
opls_750-419    N    0.11630990    0.89775000    0.40781998    -0.37660000
opls_542-420    N    0.69449992    0.24246993    0.74947966    -0.12930000
opls_542-421    N    0.19449992    0.74246993    0.74947966    -0.13070000
opls_542-422    N    0.30549989    0.24246993    0.25052034    -0.12930000
opls_542-423    N    0.80549989    0.74246993    0.25052034    -0.13070000
opls_542-424    N    0.30549989    0.75754004    0.25052034    -0.12930000
opls_542-425    N    0.80549989    0.25753007    0.25052034    -0.12930000
opls_542-426    N    0.69449992    0.75754004    0.74947966    -0.12930000
opls_542-427    N    0.19449992    0.25753007    0.74947966    -0.12920000
opls_236-428    O    0.72168999    0.21135996    0.64972834    -0.40010000
opls_236-429    O    0.22168999    0.71135996    0.64972834    -0.40020000
opls_236-430    O    0.27831006    0.21135996    0.35026896    -0.40010000
opls_236-431    O    0.77831006    0.71135996    0.35026896    -0.40020000
opls_236-432    O    0.27831006    0.78864004    0.35026896    -0.40010000
opls_236-433    O    0.77831006    0.28864004    0.35026896    -0.40020000
opls_236-434    O    0.72168999    0.78864004    0.64972834    -0.40020000
opls_236-435    O    0.22168999    0.28864004    0.64972834    -0.40020000
