#======================================================================
# Crystal Data Generated By AuToFF
#----------------------------------------------------------------------

data_AuToFF_phase_1

_cell_length_a                         38.6088
_cell_length_b                         38.6088
_cell_length_c                         5.8177
_cell_angle_alpha                      90.00
_cell_angle_beta                       90.00
_cell_angle_gamma                      120.00
_symmetry_space_group_name_H-M_alt     'P 1'
_symmetry_space_group_IT_number        1

loop_
_space_group_symop_operation_xyz
   'x, y, z'

loop_
   _atom_site_label
   _atom_site_type_symbol
   _atom_site_fract_x
   _atom_site_fract_y
   _atom_site_fract_z
   _atom_site_charge
opls_145-0    C    0.46554013    0.04433010    0.27276071    -0.09020000
opls_145-1    C    0.95567009    0.42120995    0.27276071    -0.09020000
opls_145-2    C    0.57879004    0.53445996    0.27276071    -0.09020000
opls_145-3    C    0.53445987    0.95566990    0.27276071    -0.09020000
opls_145-4    C    0.04432991    0.57879005    0.27276071    -0.09010000
opls_145-5    C    0.42120996    0.46554004    0.27276071    -0.09020000
opls_145-6    C    0.45051012    0.07097009    0.27604036    -0.11680000
opls_145-7    C    0.92903003    0.37954014    0.27604036    -0.11680000
opls_145-8    C    0.62046000    0.54949007    0.27604036    -0.11680000
opls_145-9    C    0.54948988    0.92902991    0.27604036    -0.11680000
opls_145-10    C    0.07097012    0.62046016    0.27604036    -0.11680000
opls_145-11    C    0.37954000    0.45050993    0.27604036    -0.11680000
opls_145-12    C    0.44814010    0.38275013    0.68982072    -0.11680000
opls_145-13    C    0.61725003    0.06538991    0.68982072    -0.11670000
opls_145-14    C    0.93460987    0.55185996    0.68982072    -0.11680000
opls_145-15    C    0.55186004    0.61725017    0.68982072    -0.11680000
opls_145-16    C    0.38274997    0.93461009    0.68982072    -0.11670000
opls_145-17    C    0.06539013    0.44814004    0.68982072    -0.11680000
opls_145-18    C    0.46353997    0.42418008    0.66102068    -0.09050000
opls_145-19    C    0.57582007    0.03936003    0.66102068    -0.09050000
opls_145-20    C    0.96063996    0.53645988    0.66102068    -0.09050000
opls_145-21    C    0.53646003    0.57581992    0.66102068    -0.09050000
opls_145-22    C    0.42417993    0.96063997    0.66102068    -0.09050000
opls_145-23    C    0.03936004    0.46354012    0.66102068    -0.09050000
opls_700-24    C    0.49044990    0.51091990    0.44685013    -0.02730000
opls_700-25    C    0.48907991    0.97952997    0.44685013    -0.02730000
opls_700-26    C    0.02047019    0.50955013    0.44685013    -0.02730000
opls_700-27    C    0.50955010    0.48908010    0.44685013    -0.02730000
opls_700-28    C    0.51092009    0.02047003    0.44685013    -0.02730000
opls_700-29    C    0.97952996    0.49045017    0.44685013    -0.02730000
opls_145-30    C    0.49825007    0.92627003    0.64703921    -0.09060000
opls_145-31    C    0.07373014    0.57198007    0.64703921    -0.09060000
opls_145-32    C    0.42802006    0.50174990    0.64703921    -0.09060000
opls_145-33    C    0.50174993    0.07372997    0.64703921    -0.09060000
opls_145-34    C    0.92626986    0.42801993    0.64703921    -0.09060000
opls_145-35    C    0.57197994    0.49825010    0.64703921    -0.09060000
opls_145-36    C    0.51322996    0.89974010    0.65108032    -0.11680000
opls_145-37    C    0.10026003    0.61349017    0.65108032    -0.11680000
opls_145-38    C    0.38650990    0.48677003    0.65108032    -0.11680000
opls_145-39    C    0.48677004    0.10025990    0.65108032    -0.11680000
opls_145-40    C    0.89974011    0.38651013    0.65108032    -0.11680000
opls_145-41    C    0.61349010    0.51322997    0.65108032    -0.11680000
opls_145-42    C    0.52176993    0.61918998    0.30558984    -0.11790000
opls_145-43    C    0.38081002    0.90258014    0.30558984    -0.11790000
opls_145-44    C    0.09742004    0.47822988    0.30558984    -0.11790000
opls_145-45    C    0.47823007    0.38081002    0.30558984    -0.11790000
opls_145-46    C    0.61918998    0.09741986    0.30558984    -0.11790000
opls_145-47    C    0.90257996    0.52177012    0.30558984    -0.11790000
opls_145-48    C    0.50603999    0.57771009    0.27843993    -0.09040000
opls_145-49    C    0.42229013    0.92833007    0.27843993    -0.09040000
opls_145-50    C    0.07167004    0.49396014    0.27843993    -0.09040000
opls_145-51    C    0.49396001    0.42228991    0.27843993    -0.09040000
opls_145-52    C    0.57770987    0.07166993    0.27843993    -0.09040000
opls_145-53    C    0.92833011    0.50604016    0.27843993    -0.09040000
opls_700-54    C    0.49156018    0.04575012    0.45728037    0.06500000
opls_700-55    C    0.95424989    0.44580993    0.45728037    0.06500000
opls_700-56    C    0.55418993    0.50843995    0.45728037    0.06500000
opls_700-57    C    0.50843997    0.95425018    0.45728037    0.06500000
opls_700-58    C    0.04575011    0.55419007    0.45728037    0.06500000
opls_700-59    C    0.44581007    0.49156005    0.45728037    0.06500000
opls_142-60    C    0.44907993    0.15176007    0.62438077    0.03280000
opls_142-61    C    0.84823987    0.29731997    0.62438077    0.03280000
opls_142-62    C    0.70267994    0.55091996    0.62438077    0.03280000
opls_142-63    C    0.55092007    0.84823993    0.62438077    0.03280000
opls_142-64    C    0.15176013    0.70268003    0.62438077    0.03280000
opls_142-65    C    0.29732006    0.44908004    0.62438077    0.03280000
opls_700-66    C    0.44129996    0.18519000    0.57807037    0.07460000
opls_700-67    C    0.81481016    0.25611014    0.57807037    0.07460000
opls_700-68    C    0.74389003    0.55870015    0.57807037    0.07460000
opls_700-69    C    0.55870004    0.81481000    0.57807037    0.07460000
opls_700-70    C    0.18518999    0.74389015    0.57807037    0.07460000
opls_700-71    C    0.25611012    0.44130015    0.57807037    0.07460000
opls_145-72    C    0.45536017    0.21691012    0.74643072    -0.09050000
opls_145-73    C    0.78308995    0.23844994    0.74643072    -0.09050000
opls_145-74    C    0.76154989    0.54463994    0.74643072    -0.09050000
opls_145-75    C    0.54463998    0.78309018    0.74643072    -0.09050000
opls_145-76    C    0.21691005    0.76155006    0.74643072    -0.09050000
opls_145-77    C    0.23845011    0.45536006    0.74643072    -0.09050000
opls_145-78    C    0.45233007    0.25105993    0.69701085    -0.09150000
opls_145-79    C    0.74893999    0.20126988    0.69701085    -0.09150000
opls_145-80    C    0.79873005    0.54766989    0.69701085    -0.09150000
opls_145-81    C    0.54766993    0.74894007    0.69701085    -0.09150000
opls_145-82    C    0.25106001    0.79873012    0.69701085    -0.09150000
opls_145-83    C    0.20126995    0.45233011    0.69701085    -0.09150000
opls_700-84    C    0.43519991    0.25412995    0.47720061    0.07270000
opls_700-85    C    0.74587001    0.18106992    0.47720061    0.07270000
opls_700-86    C    0.81893008    0.56480013    0.47720061    0.07270000
opls_700-87    C    0.56480009    0.74587005    0.47720061    0.07270000
opls_700-88    C    0.25412999    0.81893008    0.47720061    0.07270000
opls_700-89    C    0.18106992    0.43519987    0.47720061    0.07280000
opls_145-90    C    0.41952002    0.22166006    0.31329048    -0.09050000
opls_145-91    C    0.77833993    0.19786010    0.31329048    -0.09050000
opls_145-92    C    0.80213995    0.58048014    0.31329048    -0.09050000
opls_145-93    C    0.58047998    0.77833994    0.31329048    -0.09050000
opls_145-94    C    0.22166007    0.80213990    0.31329048    -0.09050000
opls_145-95    C    0.19786020    0.41952016    0.31329048    -0.09050000
opls_145-96    C    0.42261001    0.18743009    0.36271035    -0.10290000
opls_145-97    C    0.81256997    0.23518013    0.36271035    -0.10290000
opls_145-98    C    0.76481991    0.57739007    0.36271035    -0.10280000
opls_145-99    C    0.57738999    0.81256991    0.36271035    -0.10290000
opls_145-100    C    0.18743018    0.76482016    0.36271035    -0.10280000
opls_145-101    C    0.23518009    0.42260993    0.36271035    -0.10290000
opls_142-102    C    0.43727991    0.29232987    0.40715059    0.02950000
opls_142-103    C    0.70767013    0.14495008    0.40715059    0.02950000
opls_142-104    C    0.85504996    0.56272005    0.40715059    0.02950000
opls_142-105    C    0.56272009    0.70767013    0.40715059    0.02950000
opls_142-106    C    0.29232987    0.85504992    0.40715059    0.02950000
opls_142-107    C    0.14495004    0.43727995    0.40715059    0.02950000
opls_145-108    C    0.45571996    0.36084005    0.51419977    0.20420000
opls_145-109    C    0.63916007    0.09488010    0.51419977    0.20420000
opls_145-110    C    0.90512012    0.54428015    0.51419977    0.20420000
opls_145-111    C    0.54428004    0.63915995    0.51419977    0.20420000
opls_145-112    C    0.36083993    0.90511990    0.51419977    0.20420000
opls_145-113    C    0.09488003    0.45572015    0.51419977    0.20420000
opls_700-114    C    0.48711003    0.44436987    0.45718067    0.06500000
opls_700-115    C    0.55563002    0.04273990    0.45718067    0.06500000
opls_700-116    C    0.95726006    0.51288992    0.45718067    0.06500000
opls_700-117    C    0.51288997    0.55563013    0.45718067    0.06500000
opls_700-118    C    0.44436998    0.95726010    0.45718067    0.06510000
opls_700-119    C    0.04273994    0.48711008    0.45718067    0.06500000
opls_145-120    C    0.46098997    0.09924005    0.46437080    0.20420000
opls_145-121    C    0.90076017    0.36175014    0.46437080    0.20440000
opls_145-122    C    0.63825001    0.53901011    0.46437080    0.20420000
opls_145-123    C    0.53901003    0.90075995    0.46437080    0.20430000
opls_145-124    C    0.09923998    0.63825016    0.46437080    0.20420000
opls_145-125    C    0.36174999    0.46098989    0.46437080    0.20420000
opls_750-126    N    0.44819989    0.12867999    0.44756003    -0.21190000
opls_750-127    N    0.87132014    0.31952016    0.44756003    -0.21200000
opls_750-128    N    0.68048012    0.55180014    0.44756003    -0.21200000
opls_750-129    N    0.55180011    0.87132001    0.44756003    -0.21200000
opls_750-130    N    0.12868001    0.68048014    0.44756003    -0.21190000
opls_750-131    N    0.31952003    0.44820015    0.44756003    -0.21200000
opls_750-132    N    0.44579990    0.32026995    0.56879007    -0.22400000
opls_750-133    N    0.67973010    0.12553011    0.56879007    -0.22400000
opls_750-134    N    0.87447000    0.55419994    0.56879007    -0.22400000
opls_750-135    N    0.55420010    0.67973005    0.56879007    -0.22400000
opls_750-136    N    0.32027005    0.87447019    0.56879007    -0.22400000
opls_750-137    N    0.12553000    0.44580006    0.56879007    -0.22390000
opls_146-138    H    0.45791010    0.02351015    0.12312082    0.12210000
opls_146-139    H    0.97649018    0.43440014    0.12312082    0.12210000
opls_146-140    H    0.56560013    0.54209001    0.12312082    0.12210000
opls_146-141    H    0.54209005    0.97649015    0.12312082    0.12210000
opls_146-142    H    0.02350997    0.56560016    0.12312082    0.12210000
opls_146-143    H    0.43439987    0.45790999    0.12312082    0.12210000
opls_146-144    H    0.43136008    0.07022000    0.12843048    0.04740000
opls_146-145    H    0.92978004    0.36114002    0.12843048    0.04740000
opls_146-146    H    0.63885989    0.56863998    0.12843048    0.04740000
opls_146-147    H    0.56863992    0.92978000    0.12843048    0.04740000
opls_146-148    H    0.07021996    0.63885998    0.12843048    0.04740000
opls_146-149    H    0.36114011    0.43136002    0.12843048    0.04740000
opls_146-150    H    0.43149015    0.36792010    0.85345068    0.04800000
opls_146-151    H    0.63208002    0.06357002    0.85345068    0.04800000
opls_146-152    H    0.93642983    0.56850988    0.85345068    0.04800000
opls_146-153    H    0.56850985    0.63207990    0.85345068    0.04800000
opls_146-154    H    0.36791998    0.93642998    0.85345068    0.04800000
opls_146-155    H    0.06357017    0.43149012    0.85345068    0.04800000
opls_146-156    H    0.45905994    0.44094006    0.80353920    0.04510000
opls_146-157    H    0.55905994    0.01811988    0.80353920    0.04520000
opls_146-158    H    0.98188012    0.54094006    0.80353920    0.04510000
opls_146-159    H    0.54094006    0.55905994    0.80353920    0.04510000
opls_146-160    H    0.44094006    0.98188012    0.80353920    0.04510000
opls_146-161    H    0.01811988    0.45905994    0.80353920    0.04510000
opls_146-162    H    0.47797003    0.92443998    0.79021950    0.05230000
opls_146-163    H    0.07556010    0.55353001    0.79021950    0.05230000
opls_146-164    H    0.44646988    0.52203002    0.79021950    0.05230000
opls_146-165    H    0.52202997    0.07556002    0.79021950    0.05230000
opls_146-166    H    0.92443990    0.44646999    0.79021950    0.05230000
opls_146-167    H    0.55352986    0.47796998    0.79021950    0.05230000
opls_146-168    H    0.50313010    0.87768018    0.79580934    0.12210000
opls_146-169    H    0.12231994    0.62544996    0.79580934    0.12210000
opls_146-170    H    0.37455011    0.49687016    0.79580934    0.12220000
opls_146-171    H    0.49687005    0.12232012    0.79580934    0.12210000
opls_146-172    H    0.87768006    0.37455004    0.79580934    0.12210000
opls_146-173    H    0.62545004    0.50313014    0.79580934    0.12210000
opls_146-174    H    0.51426020    0.63504017    0.17091978    0.08190000
opls_146-175    H    0.36495998    0.87922013    0.17091978    0.08190000
opls_146-176    H    0.12077996    0.48574001    0.17091978    0.08190000
opls_146-177    H    0.48573995    0.36496013    0.17091978    0.08190000
opls_146-178    H    0.63504002    0.12077987    0.17091978    0.08190000
opls_146-179    H    0.87922004    0.51425999    0.17091978    0.08190000
opls_146-180    H    0.48716001    0.56249993    0.12273923    0.04430000
opls_146-181    H    0.43749996    0.92466010    0.12273923    0.04430000
opls_146-182    H    0.07534003    0.51283998    0.12273923    0.04430000
opls_146-183    H    0.51283999    0.43750007    0.12273923    0.04430000
opls_146-184    H    0.56250004    0.07533990    0.12273923    0.04430000
opls_146-185    H    0.92465997    0.48716002    0.12273923    0.04440000
opls_144-186    H    0.45843992    0.14889999    0.80583048    0.02630000
opls_144-187    H    0.85110009    0.30953996    0.80583048    0.02630000
opls_144-188    H    0.69045999    0.54156005    0.80583048    0.02630000
opls_144-189    H    0.54156008    0.85110001    0.80583048    0.02630000
opls_144-190    H    0.14889991    0.69046004    0.80583048    0.02630000
opls_144-191    H    0.30954001    0.45843995    0.80583048    0.02630000
opls_146-192    H    0.47028005    0.21602993    0.91216976    0.04710000
opls_146-193    H    0.78397001    0.25424988    0.91216976    0.04710000
opls_146-194    H    0.74575005    0.52971988    0.91216976    0.04710000
opls_146-195    H    0.52971995    0.78397007    0.91216976    0.04710000
opls_146-196    H    0.21602999    0.74575012    0.91216976    0.04710000
opls_146-197    H    0.25424995    0.47028012    0.91216976    0.04710000
opls_146-198    H    0.46494997    0.27572990    0.82645032    0.12640000
opls_146-199    H    0.72427011    0.18922007    0.82645032    0.12650000
opls_146-200    H    0.81077992    0.53505004    0.82645032    0.12640000
opls_146-201    H    0.53505003    0.72427010    0.82645032    0.12640000
opls_146-202    H    0.27572989    0.81077993    0.82645032    0.12640000
opls_146-203    H    0.18922008    0.46494996    0.82645032    0.12640000
opls_146-204    H    0.40582008    0.22324995    0.14409990    0.04580000
opls_146-205    H    0.77675002    0.18257009    0.14409990    0.04580000
opls_146-206    H    0.81742990    0.59417996    0.14409990    0.04580000
opls_146-207    H    0.59417992    0.77675005    0.14409990    0.04580000
opls_146-208    H    0.22324998    0.81742991    0.14409990    0.04590000
opls_146-209    H    0.18257010    0.40582004    0.14409990    0.04580000
opls_146-210    H    0.41133014    0.16324014    0.23008921    0.08210000
opls_146-211    H    0.83676002    0.24809009    0.23008921    0.08210000
opls_146-212    H    0.75190999    0.58867006    0.23008921    0.08210000
opls_146-213    H    0.58867001    0.83676016    0.23008921    0.08210000
opls_146-214    H    0.16323998    0.75190991    0.23008921    0.08210000
opls_146-215    H    0.24809001    0.41132994    0.23008921    0.08210000
opls_144-216    H    0.43382997    0.29761994    0.21675920    0.02950000
opls_144-217    H    0.70238017    0.13621016    0.21675920    0.02950000
opls_144-218    H    0.86378987    0.56616990    0.21675920    0.02950000
opls_144-219    H    0.56617003    0.70238006    0.21675920    0.02950000
opls_144-220    H    0.29761998    0.86379014    0.21675920    0.02950000
opls_144-221    H    0.13621013    0.43383010    0.21675920    0.02950000
