#======================================================================
# Crystal Data Generated By AuToFF
#----------------------------------------------------------------------

data_AuToFF_phase_1

_cell_length_a                         31.1302
_cell_length_b                         40.2097
_cell_length_c                         6.6837
_cell_angle_alpha                      90.00
_cell_angle_beta                       90.00
_cell_angle_gamma                      90.00
_symmetry_space_group_name_H-M_alt     'P 1'
_symmetry_space_group_IT_number        1

loop_
_space_group_symop_operation_xyz
   'x, y, z'

loop_
   _atom_site_label
   _atom_site_type_symbol
   _atom_site_fract_x
   _atom_site_fract_y
   _atom_site_fract_z
   _atom_site_charge
opls_145-0    C    0.39287990    0.41512993    0.81945928    -0.21820000
opls_145-1    C    0.36615987    0.39384999    0.81952960    -0.21820000
opls_145-2    C    0.89287990    0.91512993    0.81945928    -0.21820000
opls_145-3    C    0.86615987    0.89384999    0.81952960    -0.21800000
opls_145-4    C    0.60712010    0.58487007    0.81945928    -0.21820000
opls_145-5    C    0.63384013    0.60615001    0.81952960    -0.21820000
opls_145-6    C    0.10712010    0.08487007    0.81945928    -0.21820000
opls_145-7    C    0.13384013    0.10615001    0.81952960    -0.21820000
opls_145-8    C    0.60712010    0.41512993    0.18054072    -0.21820000
opls_145-9    C    0.63384013    0.39384999    0.18047040    -0.21820000
opls_145-10    C    0.10712010    0.91512993    0.18054072    -0.21820000
opls_145-11    C    0.13384013    0.89384999    0.18047040    -0.21810000
opls_145-12    C    0.39287990    0.58487007    0.18054072    -0.21820000
opls_145-13    C    0.36615987    0.60615001    0.18047040    -0.21810000
opls_145-14    C    0.89287990    0.08487007    0.18054072    -0.21820000
opls_145-15    C    0.86615987    0.10615001    0.18047040    -0.21820000
opls_145-16    C    0.60712010    0.58487007    0.18054072    -0.21810000
opls_145-17    C    0.63384013    0.60615001    0.18047040    -0.21820000
opls_145-18    C    0.10712010    0.08487007    0.18054072    -0.21820000
opls_145-19    C    0.13384013    0.10615001    0.18047040    -0.21820000
opls_145-20    C    0.39287990    0.41512993    0.18054072    -0.21820000
opls_145-21    C    0.36615987    0.39384999    0.18047040    -0.21820000
opls_145-22    C    0.89287990    0.91512993    0.18054072    -0.21810000
opls_145-23    C    0.86615987    0.89384999    0.18047040    -0.21820000
opls_145-24    C    0.39287990    0.58487007    0.81945928    -0.21810000
opls_145-25    C    0.36615987    0.60615001    0.81952960    -0.21820000
opls_145-26    C    0.89287990    0.08487007    0.81945928    -0.21810000
opls_145-27    C    0.86615987    0.10615001    0.81952960    -0.21820000
opls_145-28    C    0.60712010    0.41512993    0.81945928    -0.21820000
opls_145-29    C    0.63384013    0.39384999    0.81952960    -0.21820000
opls_145-30    C    0.10712010    0.91512993    0.81945928    -0.21820000
opls_145-31    C    0.13384013    0.89384999    0.81952960    -0.21820000
opls_716-32    C    0.48162010    0.41157009    0.00000000    -0.19440000
opls_543-33    C    0.47095007    0.44005999    0.00000000    0.15350000
opls_141-34    C    0.43480993    0.44836992    0.00000000    -0.03650000
opls_543-35    C    0.42431016    0.47700008    0.00000000    0.12620000
opls_716-36    C    0.38832998    0.48545003    0.00000000    -0.19420000
opls_145-37    C    0.40635010    0.42583009    0.00000000    0.03960000
opls_145-38    C    0.35277994    0.38312994    0.00000000    0.00710000
opls_142-39    C    0.32480999    0.36085994    0.00000000    0.07470000
opls_145-40    C    0.30941015    0.31026991    0.00000000    0.15390000
opls_145-41    C    0.32337987    0.28238012    0.00000000    -0.19050000
opls_145-42    C    0.30009990    0.25873011    0.00000000    -0.17690000
opls_145-43    C    0.26234011    0.26255008    0.00000000    0.03550000
opls_145-44    C    0.24840990    0.29060003    0.00000000    -0.17880000
opls_145-45    C    0.27168987    0.31425004    0.00000000    -0.19040000
opls_716-46    C    0.98162010    0.91157009    0.00000000    -0.19440000
opls_543-47    C    0.97095007    0.94005999    0.00000000    0.15350000
opls_141-48    C    0.93480993    0.94836992    0.00000000    -0.03650000
opls_543-49    C    0.92431016    0.97700008    0.00000000    0.12620000
opls_716-50    C    0.88832998    0.98545003    0.00000000    -0.19420000
opls_145-51    C    0.90635010    0.92583009    0.00000000    0.03960000
opls_145-52    C    0.85277994    0.88312994    0.00000000    0.00710000
opls_142-53    C    0.82480999    0.86085994    0.00000000    0.07470000
opls_145-54    C    0.80941015    0.81026991    0.00000000    0.15390000
opls_145-55    C    0.82337987    0.78238012    0.00000000    -0.19050000
opls_145-56    C    0.80009990    0.75873011    0.00000000    -0.17690000
opls_145-57    C    0.76234011    0.76255008    0.00000000    0.03550000
opls_145-58    C    0.74840990    0.79060003    0.00000000    -0.17880000
opls_145-59    C    0.77168987    0.81425004    0.00000000    -0.19050000
opls_716-60    C    0.51837990    0.58842991    0.00000000    -0.19440000
opls_543-61    C    0.52904993    0.55994001    0.00000000    0.15360000
opls_141-62    C    0.56519007    0.55163008    0.00000000    -0.03650000
opls_543-63    C    0.57568984    0.52299992    0.00000000    0.12620000
opls_716-64    C    0.61167002    0.51454997    0.00000000    -0.19420000
opls_145-65    C    0.59364990    0.57416991    0.00000000    0.03960000
opls_145-66    C    0.64722006    0.61687006    0.00000000    0.00710000
opls_142-67    C    0.67519001    0.63914006    0.00000000    0.07470000
opls_145-68    C    0.69058985    0.68973009    0.00000000    0.15390000
opls_145-69    C    0.67662013    0.71761988    0.00000000    -0.19050000
opls_145-70    C    0.69990010    0.74126989    0.00000000    -0.17690000
opls_145-71    C    0.73765989    0.73744992    0.00000000    0.03550000
opls_145-72    C    0.75159010    0.70939997    0.00000000    -0.17880000
opls_145-73    C    0.72831013    0.68574996    0.00000000    -0.19050000
opls_716-74    C    0.01837990    0.08842991    0.00000000    -0.19440000
opls_543-75    C    0.02904993    0.05994001    0.00000000    0.15350000
opls_141-76    C    0.06519007    0.05163008    0.00000000    -0.03650000
opls_543-77    C    0.07568984    0.02299992    0.00000000    0.12620000
opls_716-78    C    0.11167002    0.01454997    0.00000000    -0.19410000
opls_145-79    C    0.09364990    0.07416991    0.00000000    0.03960000
opls_145-80    C    0.14722006    0.11687006    0.00000000    0.00710000
opls_142-81    C    0.17519001    0.13914006    0.00000000    0.07470000
opls_145-82    C    0.19058985    0.18973009    0.00000000    0.15390000
opls_145-83    C    0.17662013    0.21761988    0.00000000    -0.19050000
opls_145-84    C    0.19990010    0.24126989    0.00000000    -0.17690000
opls_145-85    C    0.23765989    0.23744992    0.00000000    0.03550000
opls_145-86    C    0.25159010    0.20939997    0.00000000    -0.17880000
opls_145-87    C    0.22831013    0.18574996    0.00000000    -0.19050000
opls_716-88    C    0.51837990    0.41157009    0.00000000    -0.19440000
opls_543-89    C    0.52904993    0.44005999    0.00000000    0.15350000
opls_141-90    C    0.56519007    0.44836992    0.00000000    -0.03650000
opls_543-91    C    0.57568984    0.47700008    0.00000000    0.12620000
opls_716-92    C    0.61167002    0.48545003    0.00000000    -0.19410000
opls_145-93    C    0.59364990    0.42583009    0.00000000    0.03960000
opls_145-94    C    0.64722006    0.38312994    0.00000000    0.00710000
opls_142-95    C    0.67519001    0.36085994    0.00000000    0.07470000
opls_145-96    C    0.69058985    0.31026991    0.00000000    0.15400000
opls_145-97    C    0.67662013    0.28238012    0.00000000    -0.19050000
opls_145-98    C    0.69990010    0.25873011    0.00000000    -0.17690000
opls_145-99    C    0.73765989    0.26255008    0.00000000    0.03550000
opls_145-100    C    0.75159010    0.29060003    0.00000000    -0.17880000
opls_145-101    C    0.72831013    0.31425004    0.00000000    -0.19040000
opls_716-102    C    0.01837990    0.91157009    0.00000000    -0.19440000
opls_543-103    C    0.02904993    0.94005999    0.00000000    0.15350000
opls_141-104    C    0.06519007    0.94836992    0.00000000    -0.03650000
opls_543-105    C    0.07568984    0.97700008    0.00000000    0.12620000
opls_716-106    C    0.11167002    0.98545003    0.00000000    -0.19420000
opls_145-107    C    0.09364990    0.92583009    0.00000000    0.03960000
opls_145-108    C    0.14722006    0.88312994    0.00000000    0.00710000
opls_142-109    C    0.17519001    0.86085994    0.00000000    0.07470000
opls_145-110    C    0.19058985    0.81026991    0.00000000    0.15390000
opls_145-111    C    0.17662013    0.78238012    0.00000000    -0.19050000
opls_145-112    C    0.19990010    0.75873011    0.00000000    -0.17680000
opls_145-113    C    0.23765989    0.76255008    0.00000000    0.03550000
opls_145-114    C    0.25159010    0.79060003    0.00000000    -0.17870000
opls_145-115    C    0.22831013    0.81425004    0.00000000    -0.19050000
opls_716-116    C    0.48162010    0.58842991    0.00000000    -0.19440000
opls_543-117    C    0.47095007    0.55994001    0.00000000    0.15350000
opls_141-118    C    0.43480993    0.55163008    0.00000000    -0.03630000
opls_543-119    C    0.42431016    0.52299992    0.00000000    0.12620000
opls_716-120    C    0.38832998    0.51454997    0.00000000    -0.19420000
opls_145-121    C    0.40635010    0.57416991    0.00000000    0.03960000
opls_145-122    C    0.35277994    0.61687006    0.00000000    0.00710000
opls_142-123    C    0.32480999    0.63914006    0.00000000    0.07470000
opls_145-124    C    0.30941015    0.68973009    0.00000000    0.15390000
opls_145-125    C    0.32337987    0.71761988    0.00000000    -0.19040000
opls_145-126    C    0.30009990    0.74126989    0.00000000    -0.17690000
opls_145-127    C    0.26234011    0.73744992    0.00000000    0.03560000
opls_145-128    C    0.24840990    0.70939997    0.00000000    -0.17880000
opls_145-129    C    0.27168987    0.68574996    0.00000000    -0.19050000
opls_716-130    C    0.98162010    0.08842991    0.00000000    -0.19440000
opls_543-131    C    0.97095007    0.05994001    0.00000000    0.15350000
opls_141-132    C    0.93480993    0.05163008    0.00000000    -0.03650000
opls_543-133    C    0.92431016    0.02299992    0.00000000    0.12620000
opls_716-134    C    0.88832998    0.01454997    0.00000000    -0.19420000
opls_145-135    C    0.90635010    0.07416991    0.00000000    0.03960000
opls_145-136    C    0.85277994    0.11687006    0.00000000    0.00710000
opls_142-137    C    0.82480999    0.13914006    0.00000000    0.07470000
opls_145-138    C    0.80941015    0.18973009    0.00000000    0.15390000
opls_145-139    C    0.82337987    0.21761988    0.00000000    -0.19050000
opls_145-140    C    0.80009990    0.24126989    0.00000000    -0.17690000
opls_145-141    C    0.76234011    0.23744992    0.00000000    0.03550000
opls_145-142    C    0.74840990    0.20939997    0.00000000    -0.17880000
opls_145-143    C    0.77168987    0.18574996    0.00000000    -0.19050000
opls_146-144    H    0.40376001    0.42380993    0.67241947    0.07940000
opls_146-145    H    0.35525984    0.38522993    0.67237009    0.08090000
opls_146-146    H    0.90376001    0.92380993    0.67241947    0.07940000
opls_146-147    H    0.85525984    0.88522993    0.67237009    0.08100000
opls_146-148    H    0.59623999    0.57619007    0.67241947    0.07940000
opls_146-149    H    0.64474016    0.61477007    0.67237009    0.08090000
opls_146-150    H    0.09623999    0.07619007    0.67241947    0.07940000
opls_146-151    H    0.14474016    0.11477007    0.67237009    0.08100000
opls_146-152    H    0.59623999    0.42380993    0.32758053    0.07940000
opls_146-153    H    0.64474016    0.38522993    0.32762991    0.08090000
opls_146-154    H    0.09623999    0.92380993    0.32758053    0.07940000
opls_146-155    H    0.14474016    0.88522993    0.32762991    0.08090000
opls_146-156    H    0.40376001    0.57619007    0.32758053    0.07940000
opls_146-157    H    0.35525984    0.61477007    0.32762991    0.08090000
opls_146-158    H    0.90376001    0.07619007    0.32758053    0.07940000
opls_146-159    H    0.85525984    0.11477007    0.32762991    0.08100000
opls_146-160    H    0.59623999    0.57619007    0.32758053    0.07940000
opls_146-161    H    0.64474016    0.61477007    0.32762991    0.08100000
opls_146-162    H    0.09623999    0.07619007    0.32758053    0.07940000
opls_146-163    H    0.14474016    0.11477007    0.32762991    0.08090000
opls_146-164    H    0.40376001    0.42380993    0.32758053    0.07940000
opls_146-165    H    0.35525984    0.38522993    0.32762991    0.08090000
opls_146-166    H    0.90376001    0.92380993    0.32758053    0.07940000
opls_146-167    H    0.85525984    0.88522993    0.32762991    0.08090000
opls_146-168    H    0.40376001    0.57619007    0.67241947    0.07940000
opls_146-169    H    0.35525984    0.61477007    0.67237009    0.08090000
opls_146-170    H    0.90376001    0.07619007    0.67241947    0.07940000
opls_146-171    H    0.85525984    0.11477007    0.67237009    0.08110000
opls_146-172    H    0.59623999    0.42380993    0.67241947    0.07940000
opls_146-173    H    0.64474016    0.38522993    0.67237009    0.08090000
opls_146-174    H    0.09623999    0.92380993    0.67241947    0.07940000
opls_146-175    H    0.14474016    0.88522993    0.67237009    0.08090000
opls_547-176    H    0.46617015    0.39037993    0.00000000    0.23000000
opls_547-177    H    0.36157012    0.47320995    0.00000000    0.22980000
opls_144-178    H    0.29494992    0.36713007    0.00000000    0.10790000
opls_146-179    H    0.35396014    0.27882998    0.00000000    0.22980000
opls_146-180    H    0.31170985    0.23605001    0.00000000    0.22940000
opls_146-181    H    0.21781004    0.29398006    0.00000000    0.22990000
opls_146-182    H    0.25990999    0.33686996    0.00000000    0.22980000
opls_547-183    H    0.96617015    0.89037993    0.00000000    0.23020000
opls_547-184    H    0.86157012    0.97320995    0.00000000    0.22980000
opls_144-185    H    0.79494992    0.86713007    0.00000000    0.10790000
opls_146-186    H    0.85396014    0.77882998    0.00000000    0.22980000
opls_146-187    H    0.81170985    0.73605001    0.00000000    0.22940000
opls_146-188    H    0.71781004    0.79398006    0.00000000    0.22990000
opls_146-189    H    0.75990999    0.83686996    0.00000000    0.22980000
opls_547-190    H    0.53382985    0.60962007    0.00000000    0.23000000
opls_547-191    H    0.63842988    0.52679005    0.00000000    0.22980000
opls_144-192    H    0.70505008    0.63286993    0.00000000    0.10790000
opls_146-193    H    0.64603986    0.72117002    0.00000000    0.22990000
opls_146-194    H    0.68829015    0.76394999    0.00000000    0.22950000
opls_146-195    H    0.78218996    0.70601994    0.00000000    0.22980000
opls_146-196    H    0.74009001    0.66313004    0.00000000    0.22980000
opls_547-197    H    0.03382985    0.10962007    0.00000000    0.23000000
opls_547-198    H    0.13842988    0.02679005    0.00000000    0.22980000
opls_144-199    H    0.20505008    0.13286993    0.00000000    0.10800000
opls_146-200    H    0.14603986    0.22117002    0.00000000    0.22980000
opls_146-201    H    0.18829015    0.26394999    0.00000000    0.22940000
opls_146-202    H    0.28218996    0.20601994    0.00000000    0.22990000
opls_146-203    H    0.24009001    0.16313004    0.00000000    0.22970000
opls_547-204    H    0.53382985    0.39037993    0.00000000    0.23000000
opls_547-205    H    0.63842988    0.47320995    0.00000000    0.22980000
opls_144-206    H    0.70505008    0.36713007    0.00000000    0.10790000
opls_146-207    H    0.64603986    0.27882998    0.00000000    0.22980000
opls_146-208    H    0.68829015    0.23605001    0.00000000    0.22940000
opls_146-209    H    0.78218996    0.29398006    0.00000000    0.22980000
opls_146-210    H    0.74009001    0.33686996    0.00000000    0.22970000
opls_547-211    H    0.03382985    0.89037993    0.00000000    0.23000000
opls_547-212    H    0.13842988    0.97320995    0.00000000    0.22980000
opls_144-213    H    0.20505008    0.86713007    0.00000000    0.10790000
opls_146-214    H    0.14603986    0.77882998    0.00000000    0.23000000
opls_146-215    H    0.18829015    0.73605001    0.00000000    0.22950000
opls_146-216    H    0.28218996    0.79398006    0.00000000    0.22980000
opls_146-217    H    0.24009001    0.83686996    0.00000000    0.22980000
opls_547-218    H    0.46617015    0.60962007    0.00000000    0.23010000
opls_547-219    H    0.36157012    0.52679005    0.00000000    0.22980000
opls_144-220    H    0.29494992    0.63286993    0.00000000    0.10790000
opls_146-221    H    0.35396014    0.72117002    0.00000000    0.22980000
opls_146-222    H    0.31170985    0.76394999    0.00000000    0.22940000
opls_146-223    H    0.21781004    0.70601994    0.00000000    0.22980000
opls_146-224    H    0.25990999    0.66313004    0.00000000    0.22970000
opls_547-225    H    0.96617015    0.10962007    0.00000000    0.23010000
opls_547-226    H    0.86157012    0.02679005    0.00000000    0.22980000
opls_144-227    H    0.79494992    0.13286993    0.00000000    0.10790000
opls_146-228    H    0.85396014    0.22117002    0.00000000    0.22980000
opls_146-229    H    0.81170985    0.26394999    0.00000000    0.22940000
opls_146-230    H    0.71781004    0.20601994    0.00000000    0.22980000
opls_146-231    H    0.75990999    0.16313004    0.00000000    0.22970000
F2_Co4+2-232    Co    0.50000000    0.50000000    0.00000000    0.62060000
F2_Co4+2-233    Co    0.00000000    0.00000000    0.00000000    0.62060000
opls_542-234    N    0.50000000    0.45795990    0.00000000    -0.26740000
opls_542-235    N    0.00000000    0.95795990    0.00000000    -0.26740000
opls_542-236    N    0.50000000    0.54204010    0.00000000    -0.26740000
opls_542-237    N    0.00000000    0.04204010    0.00000000    -0.26740000
opls_542-238    N    0.44691007    0.50000000    0.00000000    -0.27240000
opls_542-239    N    0.94691007    0.00000000    0.00000000    -0.27250000
opls_542-240    N    0.55308993    0.50000000    0.00000000    -0.27240000
opls_542-241    N    0.05308993    0.00000000    0.00000000    -0.27240000
opls_750-242    N    0.33418995    0.33400000    0.00000000    -0.24870000
opls_750-243    N    0.83418995    0.83400000    0.00000000    -0.24870000
opls_750-244    N    0.66581005    0.66600000    0.00000000    -0.24860000
opls_750-245    N    0.16581005    0.16600000    0.00000000    -0.24870000
opls_750-246    N    0.66581005    0.33400000    0.00000000    -0.24860000
opls_750-247    N    0.16581005    0.83400000    0.00000000    -0.24870000
opls_750-248    N    0.33418995    0.66600000    0.00000000    -0.24870000
opls_750-249    N    0.83418995    0.16600000    0.00000000    -0.24870000
