#======================================================================
# Crystal Data Generated By AuToFF
#----------------------------------------------------------------------

data_AuToFF_phase_1

_cell_length_a                         53.0000
_cell_length_b                         53.0000
_cell_length_c                         6.8000
_cell_angle_alpha                      90.00
_cell_angle_beta                       90.00
_cell_angle_gamma                      120.00
_symmetry_space_group_name_H-M_alt     'P 1'
_symmetry_space_group_IT_number        1

loop_
_space_group_symop_operation_xyz
   'x, y, z'

loop_
   _atom_site_label
   _atom_site_type_symbol
   _atom_site_fract_x
   _atom_site_fract_y
   _atom_site_fract_z
   _atom_site_charge
opls_526-0    H    0.04978998    0.07767997    0.00092059    0.08660000
opls_526-1    H    0.07727001    0.05048002    0.00088971    0.08530000
opls_526-2    H    0.92254993    0.95005986    0.00167059    0.08530000
opls_526-3    H    0.95002002    0.92282984    0.00171029    0.08530000
opls_146-4    H    0.90830990    0.18528999    0.00077941    0.08640000
opls_146-5    H    0.81296003    0.08974005    0.00112059    0.09030000
opls_146-6    H    0.90829004    0.22060007    0.00087941    0.09640000
opls_146-7    H    0.81280999    0.22045998    0.00087059    0.08960000
opls_146-8    H    0.77751005    0.18504009    0.00081029    0.09030000
opls_146-9    H    0.77764998    0.08969996    0.00110000    0.10350000
opls_526-10    H    0.67067005    0.12444991    0.99981029    0.08660000
opls_525-11    H    0.61773002    0.09858005    0.99922059    0.12070000
opls_526-12    H    0.67069985    0.04326989    0.00208971    0.08660000
opls_525-13    H    0.61779003    0.01612005    0.00257059    0.11540000
opls_525-14    H    0.89987010    0.38083001    0.00132941    0.08510000
opls_526-15    H    0.87374989    0.32794996    0.00100000    0.09420000
opls_525-16    H    0.98207997    0.38019994    0.00127941    0.08510000
opls_526-17    H    0.95462994    0.32731989    0.00096029    0.10320000
opls_526-18    H    0.95492999    0.12507998    0.99953971    0.08660000
opls_525-19    H    0.98221999    0.09943997    0.99883971    0.07090000
opls_526-20    H    0.87388004    0.04366990    0.00231029    0.08660000
opls_525-21    H    0.89984988    0.01676995    0.00297941    0.12070000
opls_525-22    H    0.09965986    0.98346992    0.99868971    0.11540000
opls_526-23    H    0.12576989    0.95666997    0.99928971    0.08660000
opls_525-24    H    0.01742991    0.90065001    0.00345000    0.13480000
opls_526-25    H    0.04479988    0.87518995    0.00246029    0.10980000
opls_146-26    H    0.09171995    0.81515991    0.00107941    0.08890000
opls_146-27    H    0.18697006    0.91074993    0.00077059    0.08960000
opls_146-28    H    0.22251983    0.91080985    0.00078971    0.08790000
opls_146-29    H    0.22255994    0.81543987    0.00102941    0.09640000
opls_146-30    H    0.09179995    0.77997989    0.00087059    0.09460000
opls_146-31    H    0.18732993    0.78015005    0.00083971    0.08640000
opls_526-32    H    0.04561002    0.67354984    0.00127059    0.10320000
opls_525-33    H    0.01813003    0.62060988    0.00130000    0.12720000
opls_526-34    H    0.12648987    0.67288992    0.00127059    0.08660000
opls_525-35    H    0.10030007    0.61994996    0.00132059    0.12080000
opls_525-36    H    0.38232000    0.90154000    0.00311029    0.11880000
opls_525-37    H    0.38254985    0.98414988    0.99918971    0.11880000
opls_526-38    H    0.32961002    0.95710985    0.99958971    0.10980000
opls_526-39    H    0.32946984    0.87584988    0.00226029    0.10320000
opls_526-40    H    0.03288999    0.04519999    0.49920000    0.08530000
opls_526-41    H    0.06034989    0.01796997    0.49923971    0.08530000
opls_526-42    H    0.90563011    0.91755003    0.50002059    0.08530000
opls_526-43    H    0.93311003    0.89034986    0.49998971    0.08660000
opls_146-44    H    0.89105995    0.15275990    0.49982059    0.08890000
opls_146-45    H    0.79581993    0.05715005    0.50012941    0.08840000
opls_146-46    H    0.89098005    0.18792009    0.50003971    0.09460000
opls_146-47    H    0.79544998    0.18775996    0.50006029    0.08640000
opls_146-48    H    0.76021986    0.15246992    0.49987059    0.08710000
opls_146-49    H    0.76025997    0.05709994    0.50012059    0.08640000
opls_526-50    H    0.65332989    0.09208998    0.49865000    0.10320000
opls_525-51    H    0.60047014    0.06641009    0.49781029    0.11880000
opls_526-52    H    0.65315007    0.01080996    0.50131029    0.08660000
opls_525-53    H    0.60021008    0.98378997    0.50172059    0.11390000
opls_525-54    H    0.88253013    0.34797007    0.49956029    0.12080000
opls_526-55    H    0.85632995    0.29503991    0.49962941    0.09420000
opls_525-56    H    0.96469004    0.34728008    0.49962941    0.12720000
opls_526-57    H    0.93718984    0.29432988    0.49965000    0.10320000
opls_526-58    H    0.93802000    0.09280001    0.49846029    0.10320000
opls_525-59    H    0.96543000    0.06736000    0.49748971    0.13480000
opls_526-60    H    0.85708987    0.01128992    0.50162059    0.07530000
opls_525-61    H    0.88323002    0.98452004    0.50222941    0.12670000
opls_525-62    H    0.08303000    0.95122001    0.49797059    0.12080000
opls_526-63    H    0.10897999    0.92427997    0.49862059    0.08660000
opls_525-64    H    0.00064011    0.86857003    0.50207059    0.07090000
opls_526-65    H    0.02789989    0.84290998    0.50136029    0.10320000
opls_146-66    H    0.07447011    0.78263004    0.50012941    0.08890000
opls_146-67    H    0.16983988    0.87816995    0.49978971    0.08860000
opls_146-68    H    0.20513011    0.87821004    0.49981029    0.08890000
opls_146-69    H    0.20527005    0.78286991    0.50008971    0.09030000
opls_146-70    H    0.07447995    0.74729991    0.50002941    0.09030000
opls_146-71    H    0.16997002    0.74746004    0.50003971    0.08890000
opls_526-72    H    0.02817003    0.64056005    0.49995000    0.11220000
opls_525-73    H    0.00074000    0.58768000    0.49962941    0.12720000
opls_526-74    H    0.10907002    0.63996985    0.49990000    0.09420000
opls_525-75    H    0.08296010    0.58709001    0.49957059    0.07090000
opls_525-76    H    0.36505982    0.86936983    0.50168971    0.12070000
opls_525-77    H    0.36497001    0.95182001    0.49835000    0.11540000
opls_526-78    H    0.31205997    0.92465994    0.49882941    0.10320000
opls_526-79    H    0.31211988    0.84348994    0.50110000    0.08660000
opls_526-80    H    0.45428987    0.89136992    0.49992941    0.08660000
opls_526-81    H    0.45440002    0.01880005    0.49926029    0.08660000
opls_526-82    H    0.06005993    0.49739985    0.49948971    0.08530000
opls_526-83    H    0.93305998    0.49823995    0.49950000    0.08660000
opls_526-84    H    0.07750986    0.53050991    0.00107941    0.10320000
opls_526-85    H    0.95051010    0.53135001    0.00111029    0.08660000
opls_526-86    H    0.47183002    0.92392986    0.00167941    0.08530000
opls_526-87    H    0.47194993    0.05139005    0.00093971    0.08660000
opls_526-88    H    0.03232989    0.43654997    0.49978971    0.08530000
opls_526-89    H    0.90533013    0.43739007    0.49982059    0.10320000
opls_526-90    H    0.92277995    0.47049991    0.00142059    0.08690000
opls_526-91    H    0.04978001    0.46966003    0.00140000    0.08660000
opls_526-92    H    0.51083002    0.91656984    0.49997059    0.08530000
opls_526-93    H    0.52837992    0.94915985    0.00165000    0.08660000
opls_526-94    H    0.51094011    0.04403004    0.49922941    0.08530000
opls_526-95    H    0.52848000    0.07660000    0.00097941    0.08660000
opls_167-96    O    0.72438002    0.08894004    0.00112059    -0.30850000
opls_167-97    O    0.72436004    0.13248009    0.00092941    -0.30020000
opls_167-98    O    0.86563000    0.08922000    0.00111029    -0.30850000
opls_167-99    O    0.90909011    0.13285003    0.00087941    -0.30290000
opls_167-100    O    0.90891998    0.27379996    0.00088971    -0.30790000
opls_167-101    O    0.86538996    0.27377991    0.00088971    -0.30500000
opls_167-102    O    0.09080006    0.86752993    0.00101029    -0.30290000
opls_167-103    O    0.13420009    0.91116998    0.00077941    -0.30790000
opls_167-104    O    0.09121998    0.72685997    0.00107059    -0.30020000
opls_167-105    O    0.13478011    0.72689003    0.00106029    -0.30930000
opls_167-106    O    0.27574998    0.86793996    0.00097941    -0.30290000
opls_167-107    O    0.27580011    0.91149003    0.00080000    -0.30470000
opls_236-108    O    0.00590999    0.08185998    0.00533971    -0.35090000
opls_236-109    O    0.91807991    0.99355002    0.99802059    -0.38080000
opls_236-110    O    0.08179005    0.00690010    0.00557941    -0.35710000
opls_236-111    O    0.99390991    0.91873000    0.99802059    -0.38910000
opls_236-112    O    0.08219011    0.57865002    0.00016029    -0.37010000
opls_236-113    O    0.99443986    0.57928990    0.00031029    -0.37930000
opls_236-114    O    0.57653013    0.08091008    0.00451029    -0.37900000
opls_236-115    O    0.57635001    0.99276983    0.99893971    -0.39360000
opls_236-116    O    0.91810003    0.42228005    0.00191029    -0.34490000
opls_236-117    O    0.00580000    0.42166000    0.00188971    -0.34490000
opls_236-118    O    0.42387005    0.00770991    0.00453971    -0.37820000
opls_236-119    O    0.42382995    0.91967991    0.99877059    -0.38060000
opls_167-120    O    0.70697990    0.05642999    0.50011029    -0.30790000
opls_167-121    O    0.70703012    0.09997004    0.49992941    -0.29270000
opls_167-122    O    0.84861003    0.05676006    0.50012059    -0.30470000
opls_167-123    O    0.89200005    0.10040992    0.49990000    -0.30040000
opls_167-124    O    0.89157001    0.24104001    0.49983971    -0.30020000
opls_167-125    O    0.84801999    0.24101997    0.49985000    -0.30790000
opls_167-126    O    0.07370993    0.83509004    0.50002059    -0.30290000
opls_167-127    O    0.11718001    0.87870003    0.49980000    -0.30980000
opls_167-128    O    0.07386001    0.69410003    0.50002059    -0.30980000
opls_167-129    O    0.11739995    0.69413990    0.50002059    -0.30790000
opls_167-130    O    0.25841997    0.83543994    0.49997059    -0.30290000
opls_167-131    O    0.25839008    0.87896996    0.49977941    -0.30850000
opls_236-132    O    0.98897002    0.04930004    0.50281029    -0.37690000
opls_236-133    O    0.90111005    0.96110991    0.49527059    -0.35710000
opls_236-134    O    0.06482008    0.97444996    0.50280000    -0.38080000
opls_236-135    O    0.97697002    0.88616985    0.49552941    -0.35510000
opls_236-136    O    0.06474007    0.54562995    0.49901029    -0.34490000
opls_236-137    O    0.97702999    0.54623998    0.49901029    -0.34490000
opls_236-138    O    0.55895999    0.04827999    0.50210000    -0.38060000
opls_236-139    O    0.55889990    0.96024998    0.49636029    -0.38440000
opls_236-140    O    0.90064999    0.38925998    0.50078971    -0.37010000
opls_236-141    O    0.98839013    0.38861008    0.50056029    -0.35710000
opls_236-142    O    0.40641991    0.97517982    0.50193971    -0.39360000
opls_236-143    O    0.40626011    0.88705003    0.49638971    -0.37900000
opls_521-144    C    0.61225006    0.05460992    0.00092059    0.22220000
opls_522-145    C    0.62839006    0.03990993    0.00175000    -0.17310000
opls_523-146    C    0.65873985    0.05528989    0.00157059    -0.04110000
opls_145-147    C    0.67470002    0.08586004    0.00095000    -0.22440000
opls_523-148    C    0.65874993    0.10047005    0.00021029    -0.05180000
opls_522-149    C    0.62841012    0.08547006    0.99996029    -0.17060000
opls_166-150    C    0.75303013    0.11181008    0.00108971    0.18320000
opls_166-151    C    0.75300008    0.13828998    0.00098971    0.18370000
opls_145-152    C    0.77870011    0.11089002    0.00110000    -0.18470000
opls_700-153    C    0.80550004    0.13784008    0.00106029    0.03340000
opls_700-154    C    0.80548005    0.16488992    0.00100000    0.03360000
opls_145-155    C    0.77861999    0.16491998    0.00092941    -0.18480000
opls_700-156    C    0.83314008    0.13788997    0.00105000    0.03340000
opls_700-157    C    0.86016995    0.16497990    0.00097941    0.03350000
opls_700-158    C    0.86015989    0.19262996    0.00097059    0.03130000
opls_700-159    C    0.83308003    0.19258007    0.00097059    0.03130000
opls_145-160    C    0.83308008    0.11096998    0.00108971    -0.22930000
opls_166-161    C    0.85972014    0.11201008    0.00107059    0.18240000
opls_166-162    C    0.88619004    0.13854009    0.00096029    0.18370000
opls_145-163    C    0.88710991    0.16513001    0.00090000    -0.18480000
opls_145-164    C    0.88707003    0.21950006    0.00092941    -0.23390000
opls_166-165    C    0.88610003    0.24514988    0.00092941    0.18320000
opls_166-166    C    0.85958001    0.24512003    0.00092059    0.18240000
opls_145-167    C    0.83297986    0.21942990    0.00092941    -0.22990000
opls_145-168    C    0.91237005    0.08638009    0.00091029    -0.22440000
opls_523-169    C    0.89786006    0.05580994    0.00168971    -0.04700000
opls_522-170    C    0.91297003    0.04056005    0.00195000    -0.16810000
opls_521-171    C    0.94383004    0.05538009    0.00091029    0.23860000
opls_522-172    C    0.95841990    0.08622998    0.99973971    -0.16760000
opls_523-173    C    0.94293995    0.10109991    0.00002941    -0.04110000
opls_234-174    C    0.94473004    0.00858008    0.00011029    0.45910000
opls_700-175    C    0.96129993    0.99257985    0.00117941    -0.02200000
opls_700-176    C    0.99214995    0.00799009    0.00092059    0.01750000
opls_700-177    C    0.00736991    0.03885001    0.00088971    -0.02170000
opls_234-178    C    0.99122002    0.05526004    0.00242941    0.37070000
opls_700-179    C    0.00772001    0.99256983    0.00091029    0.02710000
opls_700-180    C    0.03858001    0.00796003    0.00083971    -0.02420000
opls_523-181    C    0.05328005    0.03840991    0.00072059    -0.12220000
opls_523-182    C    0.03781994    0.05369989    0.00075000    -0.08040000
opls_523-183    C    0.94654005    0.96210992    0.00147941    -0.14760000
opls_523-184    C    0.96199997    0.94681994    0.00151029    -0.12290000
opls_700-185    C    0.99247007    0.96172996    0.00121029    -0.02080000
opls_234-186    C    0.00870998    0.94543997    0.00018971    0.45900000
opls_234-187    C    0.05522001    0.99206002    0.00252941    0.36030000
opls_521-188    C    0.05578990    0.94484998    0.00110000    0.23880000
opls_522-189    C    0.04123002    0.91398985    0.00223971    -0.17920000
opls_523-190    C    0.05677009    0.89914999    0.00180000    -0.04310000
opls_145-191    C    0.08734994    0.91389987    0.00082059    -0.22440000
opls_523-192    C    0.10179000    0.94446000    0.99991029    -0.04310000
opls_522-193    C    0.08663010    0.95967002    0.99972059    -0.17140000
opls_166-194    C    0.11373009    0.86188998    0.00098971    0.18310000
opls_166-195    C    0.14018002    0.88844003    0.00087059    0.18300000
opls_145-196    C    0.11290005    0.83532991    0.00102941    -0.23230000
opls_700-197    C    0.13988005    0.83552991    0.00097059    0.03350000
opls_700-198    C    0.16690994    0.86263988    0.00091029    0.03520000
opls_145-199    C    0.16685998    0.88949996    0.00085000    -0.23430000
opls_700-200    C    0.13993989    0.80792996    0.00097941    0.03340000
opls_700-201    C    0.16700993    0.80797985    0.00097059    0.03340000
opls_700-202    C    0.19461997    0.83563994    0.00096029    0.03350000
opls_700-203    C    0.19459009    0.86268999    0.00091029    0.03890000
opls_145-204    C    0.22145999    0.83555998    0.00100000    -0.23230000
opls_166-205    C    0.24712988    0.86216994    0.00096029    0.18310000
opls_166-206    C    0.24713985    0.88866988    0.00087059    0.18240000
opls_145-207    C    0.22144998    0.88959996    0.00085000    -0.23450000
opls_145-208    C    0.11303008    0.78110997    0.00097059    -0.18480000
opls_166-209    C    0.11406001    0.75550002    0.00103971    0.18370000
opls_166-210    C    0.14056995    0.75553989    0.00102941    0.18310000
opls_145-211    C    0.16716987    0.78118993    0.00096029    -0.18480000
opls_145-212    C    0.08806002    0.67722005    0.00115000    -0.22440000
opls_523-213    C    0.05748004    0.66144989    0.00121029    -0.04110000
opls_522-214    C    0.04192000    0.63110000    0.00117941    -0.17140000
opls_521-215    C    0.05641995    0.61475990    0.00105000    0.22220000
opls_522-216    C    0.08729004    0.63074989    0.00118971    -0.17030000
opls_523-217    C    0.10251000    0.66109999    0.00121029    -0.04050000
opls_234-218    C    0.00911984    0.56734986    0.00067941    0.36030000
opls_700-219    C    0.99285012    0.53475006    0.00086029    -0.07410000
opls_700-220    C    0.00801993    0.51905005    0.00086029    -0.02720000
opls_700-221    C    0.03888002    0.53444003    0.00085000    -0.04440000
opls_234-222    C    0.05560001    0.56702001    0.00062941    0.45950000
opls_523-223    C    0.05354001    0.51864002    0.00100000    -0.08060000
opls_523-224    C    0.96239993    0.51925986    0.00102059    -0.08060000
opls_145-225    C    0.32547000    0.91446001    0.00086029    -0.22440000
opls_145-226    C    0.91211000    0.32350001    0.00093971    -0.22440000
opls_523-227    C    0.34139997    0.89981993    0.00168971    -0.04700000
opls_522-228    C    0.37176992    0.91477984    0.00207941    -0.17170000
opls_521-229    C    0.38797990    0.94564999    0.00112941    0.23870000
opls_522-230    C    0.37184990    0.96034998    0.00000000    -0.17310000
opls_523-231    C    0.34148988    0.94502994    0.00012059    -0.04650000
opls_523-232    C    0.94268986    0.33934990    0.00102059    -0.04410000
opls_522-233    C    0.95827994    0.36973007    0.00118971    -0.17350000
opls_521-234    C    0.94378991    0.38609000    0.00128971    0.23740000
opls_522-235    C    0.91291996    0.37005992    0.00122059    -0.18230000
opls_523-236    C    0.89772007    0.33966995    0.00103971    -0.04410000
opls_523-237    C    0.51640001    0.96116002    0.00143971    -0.09900000
opls_700-238    C    0.53205988    0.99162995    0.00115000    -0.02170000
opls_700-239    C    0.51654992    0.00697003    0.00091029    -0.02710000
opls_700-240    C    0.53214007    0.03782995    0.00090000    -0.02420000
opls_523-241    C    0.51648996    0.05261992    0.00081029    -0.09900000
opls_234-242    C    0.56463997    0.00771994    0.00040000    0.45900000
opls_234-243    C    0.56468997    0.05431994    0.00215000    0.37250000
opls_234-244    C    0.94474004    0.43402989    0.00147941    0.46360000
opls_234-245    C    0.99118994    0.43371006    0.00147059    0.42160000
opls_700-246    C    0.96139005    0.46652992    0.00116029    -0.02090000
opls_700-247    C    0.00741995    0.46621989    0.00116029    -0.02090000
opls_523-248    C    0.94677010    0.48237001    0.00121029    -0.08060000
opls_700-249    C    0.99225004    0.48190007    0.00102941    -0.02720000
opls_523-250    C    0.03788989    0.48174996    0.00120000    -0.08060000
opls_234-251    C    0.43568008    0.99292997    0.00217941    0.37250000
opls_234-252    C    0.43569995    0.94639989    0.00042059    0.46430000
opls_700-253    C    0.46820998    0.00891995    0.00086029    -0.02420000
opls_700-254    C    0.46820991    0.96275982    0.00118971    -0.05290000
opls_523-255    C    0.48392004    0.03938008    0.00077941    -0.09900000
opls_700-256    C    0.48374995    0.99359991    0.00090000    -0.02710000
opls_523-257    C    0.48382998    0.94791996    0.00146029    -0.09900000
opls_521-258    C    0.59480005    0.02230010    0.49977941    0.23880000
opls_522-259    C    0.61091995    0.00759009    0.50091029    -0.17310000
opls_523-260    C    0.64127005    0.02290991    0.50077941    -0.04650000
opls_145-261    C    0.65731011    0.05347004    0.50005000    -0.22440000
opls_523-262    C    0.64138996    0.06811992    0.49922059    -0.04700000
opls_522-263    C    0.61102011    0.05317003    0.49883971    -0.17170000
opls_166-264    C    0.73563995    0.07923990    0.50002941    0.18240000
opls_166-265    C    0.73565003    0.10574006    0.49993971    0.18260000
opls_145-266    C    0.76132012    0.07831004    0.50005000    -0.23450000
opls_700-267    C    0.78819000    0.10522001    0.50000000    0.03520000
opls_700-268    C    0.78815994    0.13227006    0.49995000    0.03360000
opls_145-269    C    0.76132000    0.13234000    0.49991029    -0.23230000
opls_700-270    C    0.81587004    0.10526990    0.50000000    0.03520000
opls_700-271    C    0.84289994    0.13237007    0.49992941    0.03340000
opls_700-272    C    0.84283992    0.15997002    0.49992941    0.03340000
opls_700-273    C    0.81576987    0.15992993    0.49993971    0.03340000
opls_145-274    C    0.81592993    0.07841004    0.50006029    -0.22980000
opls_166-275    C    0.84262000    0.07947999    0.50002941    0.18240000
opls_166-276    C    0.86906003    0.10604006    0.49992059    0.18260000
opls_145-277    C    0.86987985    0.13258990    0.49987941    -0.22940000
opls_145-278    C    0.86974991    0.18679001    0.49993971    -0.19310000
opls_166-279    C    0.86872998    0.21239996    0.49987059    0.18370000
opls_166-280    C    0.84222004    0.21236989    0.49987059    0.18280000
opls_145-281    C    0.81561004    0.18672007    0.49995000    -0.22940000
opls_145-282    C    0.89548993    0.05407005    0.50008971    -0.22440000
opls_523-283    C    0.88107005    0.02350992    0.50100000    -0.04050000
opls_522-284    C    0.89623997    0.00831994    0.50120000    -0.17140000
opls_521-285    C    0.92708991    0.02315000    0.49981029    0.23880000
opls_522-286    C    0.94162997    0.05401994    0.49867941    -0.17920000
opls_523-287    C    0.92606988    0.06882995    0.49912941    -0.04310000
opls_234-288    C    0.92768000    0.97596001    0.49836029    0.37250000
opls_700-289    C    0.94432011    0.96007002    0.50007941    -0.02230000
opls_700-290    C    0.97518000    0.97546000    0.50002059    0.01750000
opls_700-291    C    0.99043985    0.00630989    0.49971029    -0.02080000
opls_234-292    C    0.97419003    0.02258006    0.50070000    0.45910000
opls_700-293    C    0.99074998    0.96003996    0.50001029    0.01750000
opls_700-294    C    0.02159990    0.97544998    0.49973971    -0.04440000
opls_523-295    C    0.03635995    0.00591991    0.49942941    -0.16600000
opls_523-296    C    0.02091015    0.02121010    0.49941029    -0.16600000
opls_523-297    C    0.92961996    0.92961992    0.50018971    -0.12220000
opls_523-298    C    0.94507988    0.91432994    0.50017059    -0.08040000
opls_700-299    C    0.97552991    0.92917982    0.50002059    -0.02170000
opls_234-300    C    0.99166999    0.91275998    0.49846029    0.37250000
opls_234-301    C    0.03816997    0.95943995    0.50077059    0.42850000
opls_521-302    C    0.03905005    0.91262992    0.50000000    0.22220000
opls_522-303    C    0.02444001    0.88178003    0.50117059    -0.17030000
opls_523-304    C    0.03990002    0.86688003    0.50087941    -0.04110000
opls_145-305    C    0.07047001    0.88158983    0.50000000    -0.22450000
opls_523-306    C    0.08499999    0.91215998    0.49922941    -0.04700000
opls_522-307    C    0.06989994    0.92741989    0.49897941    -0.16810000
opls_166-308    C    0.09659997    0.82937994    0.49995000    0.18310000
opls_166-309    C    0.12308007    0.85590994    0.49982941    0.18240000
opls_145-310    C    0.09567000    0.80278000    0.50000000    -0.22940000
opls_700-311    C    0.12260993    0.80291987    0.49992059    0.03360000
opls_700-312    C    0.14964010    0.83001001    0.49985000    0.03340000
opls_145-313    C    0.14970991    0.85693000    0.49981029    -0.23230000
opls_700-314    C    0.12262002    0.77528004    0.49993971    0.03360000
opls_700-315    C    0.14969006    0.77532993    0.49992941    0.03930000
opls_700-316    C    0.17729983    0.80300985    0.49991029    0.03360000
opls_700-317    C    0.17727995    0.83005990    0.49985000    0.03340000
opls_145-318    C    0.20415992    0.80299002    0.49997941    -0.18480000
opls_166-319    C    0.22978001    0.82962003    0.49992059    0.18260000
opls_166-320    C    0.22973996    0.85609992    0.49982059    0.18310000
opls_145-321    C    0.20408007    0.85700996    0.49981029    -0.18470000
opls_145-322    C    0.09571007    0.74840994    0.49997941    -0.23340000
opls_166-323    C    0.09667985    0.72274989    0.49997941    0.18240000
opls_166-324    C    0.12320989    0.72278997    0.49997941    0.18240000
opls_145-325    C    0.14981005    0.74848990    0.49997941    -0.23430000
opls_145-326    C    0.07069999    0.64439998    0.49997059    -0.22440000
opls_523-327    C    0.04011984    0.62854986    0.49988971    -0.04310000
opls_522-328    C    0.02452986    0.59816991    0.49972059    -0.17920000
opls_521-329    C    0.03903990    0.58180998    0.49962059    0.23740000
opls_522-330    C    0.06990984    0.59784986    0.49968971    -0.17350000
opls_523-331    C    0.08510003    0.62824005    0.49987059    -0.04460000
opls_234-332    C    0.99164005    0.53418992    0.49943971    0.37250000
opls_700-333    C    0.97541994    0.50167987    0.49975000    -0.02090000
opls_700-334    C    0.99058996    0.48599991    0.49987941    -0.02720000
opls_700-335    C    0.02145013    0.50137006    0.49973971    -0.02090000
opls_234-336    C    0.03809995    0.53387989    0.49943971    0.46360000
opls_523-337    C    0.03607000    0.48553999    0.49970000    -0.08060000
opls_523-338    C    0.94495011    0.48615002    0.49971029    -0.08060000
opls_145-339    C    0.30808001    0.88208003    0.49996029    -0.22440000
opls_145-340    C    0.89473997    0.29067993    0.49976029    -0.22440000
opls_523-341    C    0.32403010    0.86747002    0.50070000    -0.04650000
opls_522-342    C    0.35438002    0.88248004    0.50095000    -0.17140000
opls_521-343    C    0.37052997    0.91333995    0.49998971    0.22220000
opls_522-344    C    0.35436986    0.92802992    0.49916029    -0.17140000
opls_523-345    C    0.32401989    0.91264996    0.49933971    -0.04650000
opls_523-346    C    0.92533003    0.30644007    0.49971029    -0.04050000
opls_522-347    C    0.94090007    0.33678995    0.49972941    -0.17030000
opls_521-348    C    0.92639985    0.35314988    0.49985000    0.22220000
opls_522-349    C    0.89552995    0.33715989    0.49970000    -0.17030000
opls_523-350    C    0.88030010    0.30681001    0.49968971    -0.04110000
opls_523-351    C    0.49885982    0.92858984    0.50012941    -0.09900000
opls_700-352    C    0.51455997    0.95903994    0.50005000    -0.02030000
opls_700-353    C    0.49902999    0.97435999    0.50001029    -0.02710000
opls_700-354    C    0.51457004    0.00520007    0.49972059    -0.05290000
opls_523-355    C    0.49894997    0.02003994    0.49945000    -0.09900000
opls_234-356    C    0.54708995    0.97501991    0.49872059    0.37250000
opls_234-357    C    0.54708000    0.02156000    0.50047941    0.42680000
opls_234-358    C    0.92723998    0.40087997    0.50028971    0.45950000
opls_234-359    C    0.97371986    0.40054990    0.50021029    0.36030000
opls_700-360    C    0.94395989    0.43346997    0.50006029    -0.04410000
opls_700-361    C    0.98998006    0.43314992    0.50005000    -0.07410000
opls_523-362    C    0.92930008    0.44926998    0.49990000    -0.08060000
opls_700-363    C    0.97482006    0.44884993    0.50003971    -0.02720000
opls_523-364    C    0.02044006    0.44864993    0.49988971    -0.08060000
opls_234-365    C    0.41813998    0.96023996    0.50050000    0.45900000
opls_234-366    C    0.41808998    0.91363995    0.49875000    0.45950000
opls_700-367    C    0.45071007    0.97632995    0.49976029    -0.02280000
opls_700-368    C    0.45063998    0.93013997    0.50001029    -0.02300000
opls_523-369    C    0.46638005    0.00680010    0.49947059    -0.09900000
opls_700-370    C    0.46622003    0.96098986    0.50000000    -0.02710000
opls_523-371    C    0.46628991    0.91535000    0.50010000    -0.09900000
opls_251-372    N    0.95995002    0.03966004    0.00111029    -0.18590000
opls_251-373    N    0.03979001    0.96076001    0.00130000    -0.18660000
opls_251-374    N    0.04033003    0.58294987    0.00087059    -0.18590000
opls_251-375    N    0.58042995    0.03879990    0.00108971    -0.18880000
opls_251-376    N    0.95994993    0.41801986    0.00137941    -0.18690000
opls_251-377    N    0.41987010    0.96165000    0.00126029    -0.18660000
opls_251-378    N    0.94310009    0.00724999    0.49961029    -0.18660000
opls_251-379    N    0.02293989    0.92834997    0.49978971    -0.18590000
opls_251-380    N    0.02288995    0.54987990    0.49952059    -0.18690000
opls_251-381    N    0.56290004    0.00630989    0.49963971    -0.18660000
opls_251-382    N    0.94250004    0.38494990    0.50003971    -0.18590000
opls_251-383    N    0.40234989    0.92914998    0.49982059    -0.18880000
MOF2_B_2-384    B    0.70730005    0.10218010    0.00102059    0.63240000
MOF2_B_2-385    B    0.89595011    0.10255004    0.00097941    0.63240000
MOF2_B_2-386    B    0.89569988    0.29088996    0.00087941    0.63240000
MOF2_B_2-387    B    0.10388987    0.89782993    0.00086029    0.63240000
MOF2_B_2-388    B    0.10447012    0.70981005    0.00110000    0.63240000
MOF2_B_2-389    B    0.29285998    0.89823995    0.00086029    0.63240000
MOF2_B_2-390    B    0.68992004    0.06968007    0.50003971    0.63240000
MOF2_B_2-391    B    0.87892997    0.07011995    0.50005000    0.63240000
MOF2_B_2-392    B    0.87832006    0.25808993    0.49981029    0.63240000
MOF2_B_2-393    B    0.08687011    0.86539003    0.49992059    0.63240000
MOF2_B_2-394    B    0.08710002    0.67702004    0.50002941    0.63240000
MOF2_B_2-395    B    0.27547996    0.86573993    0.49988971    0.63240000
