#======================================================================
# Crystal Data Generated By AuToFF
#----------------------------------------------------------------------

data_AuToFF_phase_1

_cell_length_a                         27.8660
_cell_length_b                         30.3410
_cell_length_c                         7.8410
_cell_angle_alpha                      90.00
_cell_angle_beta                       90.00
_cell_angle_gamma                      90.00
_symmetry_space_group_name_H-M_alt     'P 1'
_symmetry_space_group_IT_number        1

loop_
_space_group_symop_operation_xyz
   'x, y, z'

loop_
   _atom_site_label
   _atom_site_type_symbol
   _atom_site_fract_x
   _atom_site_fract_y
   _atom_site_fract_z
   _atom_site_charge
opls_145-0    C    0.43636008    0.21017995    0.78143987    -0.13050000
opls_145-1    C    0.39594990    0.21023994    0.88643030    -0.17780000
opls_145-2    C    0.54336001    0.30823012    0.41487948    -0.13100000
opls_145-3    C    0.54330008    0.34507004    0.30852060    -0.17840000
opls_145-4    C    0.30629010    0.21029992    0.43984951    -0.12960000
opls_145-5    C    0.27867006    0.21014007    0.58833057    -0.13280000
opls_145-6    C    0.54324015    0.43636993    0.77483994    -0.12950000
opls_145-7    C    0.54340989    0.46707986    0.64234026    -0.13280000
opls_145-8    C    0.93636008    0.71017995    0.28143987    -0.13050000
opls_145-9    C    0.89594990    0.71023994    0.38643030    -0.17780000
opls_145-10    C    0.04336001    0.80823012    0.91487948    -0.13100000
opls_145-11    C    0.04330008    0.84507004    0.80852060    -0.17840000
opls_145-12    C    0.80629010    0.71029992    0.93984951    -0.12960000
opls_145-13    C    0.77867006    0.71014007    0.08833057    -0.13280000
opls_145-14    C    0.04324015    0.93636993    0.27483994    -0.12960000
opls_145-15    C    0.04340989    0.96707986    0.14234026    -0.13280000
opls_145-16    C    0.56363992    0.28982005    0.78143987    -0.13050000
opls_145-17    C    0.60405010    0.28976006    0.88643030    -0.17780000
opls_145-18    C    0.45663999    0.19176988    0.41487948    -0.13100000
opls_145-19    C    0.45669992    0.15492996    0.30852060    -0.17840000
opls_145-20    C    0.69370990    0.28970008    0.43984951    -0.12960000
opls_145-21    C    0.72132994    0.28985993    0.58833057    -0.13280000
opls_145-22    C    0.45675985    0.06363007    0.77483994    -0.12950000
opls_145-23    C    0.45659011    0.03292014    0.64234026    -0.13280000
opls_145-24    C    0.06363992    0.78982005    0.28143987    -0.13050000
opls_145-25    C    0.10405010    0.78976006    0.38643030    -0.17780000
opls_145-26    C    0.95663999    0.69176988    0.91487948    -0.13100000
opls_145-27    C    0.95669992    0.65492996    0.80852060    -0.17830000
opls_145-28    C    0.19370990    0.78970008    0.93984951    -0.12960000
opls_145-29    C    0.22132994    0.78985993    0.08833057    -0.13280000
opls_145-30    C    0.95675985    0.56363007    0.27483994    -0.12960000
opls_145-31    C    0.95659011    0.53292014    0.14234026    -0.13280000
opls_145-32    C    0.56363992    0.71017995    0.21856013    -0.13050000
opls_145-33    C    0.60405010    0.71023994    0.11356970    -0.17780000
opls_145-34    C    0.45663999    0.80823012    0.58512052    -0.13100000
opls_145-35    C    0.45669992    0.84507004    0.69147940    -0.17840000
opls_145-36    C    0.69370990    0.71029992    0.56015049    -0.12960000
opls_145-37    C    0.72132994    0.71014007    0.41166943    -0.13280000
opls_145-38    C    0.45675985    0.93636993    0.22516006    -0.12950000
opls_145-39    C    0.45659011    0.96707986    0.35765974    -0.13280000
opls_145-40    C    0.06363992    0.21017995    0.71856013    -0.13050000
opls_145-41    C    0.10405010    0.21023994    0.61356970    -0.17780000
opls_145-42    C    0.95663999    0.30823012    0.08512052    -0.13100000
opls_145-43    C    0.95669992    0.34507004    0.19147940    -0.17840000
opls_145-44    C    0.19370990    0.21029992    0.06015049    -0.12960000
opls_145-45    C    0.22132994    0.21014007    0.91166943    -0.13280000
opls_145-46    C    0.95675985    0.43636993    0.72516006    -0.12950000
opls_145-47    C    0.95659011    0.46707986    0.85765974    -0.13280000
opls_145-48    C    0.43636008    0.78982005    0.21856013    -0.13050000
opls_145-49    C    0.39594990    0.78976006    0.11356970    -0.17780000
opls_145-50    C    0.54336001    0.69176988    0.58512052    -0.13100000
opls_145-51    C    0.54330008    0.65492996    0.69147940    -0.17840000
opls_145-52    C    0.30629010    0.78970008    0.56015049    -0.12960000
opls_145-53    C    0.27867006    0.78985993    0.41166943    -0.13280000
opls_145-54    C    0.54324015    0.56363007    0.22516006    -0.12960000
opls_145-55    C    0.54340989    0.53292014    0.35765974    -0.13280000
opls_145-56    C    0.93636008    0.28982005    0.71856013    -0.13050000
opls_145-57    C    0.89594990    0.28976006    0.61356970    -0.17780000
opls_145-58    C    0.04336001    0.19176988    0.08512052    -0.13100000
opls_145-59    C    0.04330008    0.15492996    0.19147940    -0.17840000
opls_145-60    C    0.80629010    0.28970008    0.06015049    -0.12960000
opls_145-61    C    0.77867006    0.28985993    0.91166943    -0.13280000
opls_145-62    C    0.04324015    0.06363007    0.72516006    -0.12960000
opls_145-63    C    0.04340989    0.03292014    0.85765974    -0.13280000
opls_145-64    C    0.56363992    0.78982005    0.21856013    -0.13050000
opls_145-65    C    0.60405010    0.78976006    0.11356970    -0.17780000
opls_145-66    C    0.45663999    0.69176988    0.58512052    -0.13100000
opls_145-67    C    0.45669992    0.65492996    0.69147940    -0.17840000
opls_145-68    C    0.69370990    0.78970008    0.56015049    -0.12960000
opls_145-69    C    0.72132994    0.78985993    0.41166943    -0.13280000
opls_145-70    C    0.45675985    0.56363007    0.22516006    -0.12960000
opls_145-71    C    0.45659011    0.53292014    0.35765974    -0.13280000
opls_145-72    C    0.06363992    0.28982005    0.71856013    -0.13050000
opls_145-73    C    0.10405010    0.28976006    0.61356970    -0.17780000
opls_145-74    C    0.95663999    0.19176988    0.08512052    -0.13100000
opls_145-75    C    0.95669992    0.15492996    0.19147940    -0.17840000
opls_145-76    C    0.19370990    0.28970008    0.06015049    -0.12960000
opls_145-77    C    0.22132994    0.28985993    0.91166943    -0.13280000
opls_145-78    C    0.95675985    0.06363007    0.72516006    -0.12960000
opls_145-79    C    0.95659011    0.03292014    0.85765974    -0.13280000
opls_145-80    C    0.43636008    0.71017995    0.21856013    -0.13050000
opls_145-81    C    0.39594990    0.71023994    0.11356970    -0.17780000
opls_145-82    C    0.54336001    0.80823012    0.58512052    -0.13100000
opls_145-83    C    0.54330008    0.84507004    0.69147940    -0.17840000
opls_145-84    C    0.30629010    0.71029992    0.56015049    -0.12960000
opls_145-85    C    0.27867006    0.71014007    0.41166943    -0.13280000
opls_145-86    C    0.54324015    0.93636993    0.22516006    -0.12960000
opls_145-87    C    0.54340989    0.96707986    0.35765974    -0.13280000
opls_145-88    C    0.93636008    0.21017995    0.71856013    -0.13050000
opls_145-89    C    0.89594990    0.21023994    0.61356970    -0.17780000
opls_145-90    C    0.04336001    0.30823012    0.08512052    -0.13100000
opls_145-91    C    0.04330008    0.34507004    0.19147940    -0.17840000
opls_145-92    C    0.80629010    0.21029992    0.06015049    -0.12960000
opls_145-93    C    0.77867006    0.21014007    0.91166943    -0.13280000
opls_145-94    C    0.04324015    0.43636993    0.72516006    -0.12960000
opls_145-95    C    0.04340989    0.46707986    0.85765974    -0.13280000
opls_145-96    C    0.43636008    0.28982005    0.78143987    -0.13050000
opls_145-97    C    0.39594990    0.28976006    0.88643030    -0.17780000
opls_145-98    C    0.54336001    0.19176988    0.41487948    -0.13100000
opls_145-99    C    0.54330008    0.15492996    0.30852060    -0.17840000
opls_145-100    C    0.30629010    0.28970008    0.43984951    -0.12960000
opls_145-101    C    0.27867006    0.28985993    0.58833057    -0.13280000
opls_145-102    C    0.54324015    0.06363007    0.77483994    -0.12960000
opls_145-103    C    0.54340989    0.03292014    0.64234026    -0.13280000
opls_145-104    C    0.93636008    0.78982005    0.28143987    -0.13050000
opls_145-105    C    0.89594990    0.78976006    0.38643030    -0.17780000
opls_145-106    C    0.04336001    0.69176988    0.91487948    -0.13100000
opls_145-107    C    0.04330008    0.65492996    0.80852060    -0.17840000
opls_145-108    C    0.80629010    0.78970008    0.93984951    -0.12960000
opls_145-109    C    0.77867006    0.78985993    0.08833057    -0.13280000
opls_145-110    C    0.04324015    0.56363007    0.27483994    -0.12960000
opls_145-111    C    0.04340989    0.53292014    0.14234026    -0.13280000
opls_145-112    C    0.56363992    0.21017995    0.78143987    -0.13050000
opls_145-113    C    0.60405010    0.21023994    0.88643030    -0.17780000
opls_145-114    C    0.45663999    0.30823012    0.41487948    -0.13100000
opls_145-115    C    0.45669992    0.34507004    0.30852060    -0.17840000
opls_145-116    C    0.69370990    0.21029992    0.43984951    -0.12960000
opls_145-117    C    0.72132994    0.21014007    0.58833057    -0.13280000
opls_145-118    C    0.45675985    0.43636993    0.77483994    -0.12960000
opls_145-119    C    0.45659011    0.46707986    0.64234026    -0.13280000
opls_145-120    C    0.06363992    0.71017995    0.28143987    -0.13050000
opls_145-121    C    0.10405010    0.71023994    0.38643030    -0.17780000
opls_145-122    C    0.95663999    0.80823012    0.91487948    -0.13100000
opls_145-123    C    0.95669992    0.84507004    0.80852060    -0.17830000
opls_145-124    C    0.19370990    0.71029992    0.93984951    -0.12960000
opls_145-125    C    0.22132994    0.71014007    0.08833057    -0.13280000
opls_145-126    C    0.95675985    0.93636993    0.27483994    -0.12960000
opls_145-127    C    0.95659011    0.96707986    0.14234026    -0.13280000
opls_700-128    C    0.45612000    0.25000000    0.71982018    0.04460000
opls_145-129    C    0.37534989    0.25000000    0.93727968    0.19490000
opls_142-130    C    0.35399017    0.25000000    0.22442035    0.10080000
opls_700-131    C    0.32012991    0.25000000    0.36575054    0.04410000
opls_700-132    C    0.26444018    0.25000000    0.66819028    0.06180000
opls_700-133    C    0.95612000    0.75000000    0.21982018    0.04460000
opls_145-134    C    0.87534989    0.75000000    0.43727968    0.19490000
opls_142-135    C    0.85399017    0.75000000    0.72442035    0.10080000
opls_700-136    C    0.82012991    0.75000000    0.86575054    0.04410000
opls_700-137    C    0.76444018    0.75000000    0.16819028    0.06180000
opls_700-138    C    0.54388000    0.25000000    0.71982018    0.04460000
opls_145-139    C    0.62465011    0.25000000    0.93727968    0.19490000
opls_142-140    C    0.64600983    0.25000000    0.22442035    0.10080000
opls_700-141    C    0.67987009    0.25000000    0.36575054    0.04420000
opls_700-142    C    0.73555982    0.25000000    0.66819028    0.06180000
opls_700-143    C    0.04388000    0.75000000    0.21982018    0.04460000
opls_145-144    C    0.12465011    0.75000000    0.43727968    0.19490000
opls_142-145    C    0.14600983    0.75000000    0.72442035    0.10080000
opls_700-146    C    0.17987009    0.75000000    0.86575054    0.04410000
opls_700-147    C    0.23555982    0.75000000    0.16819028    0.06180000
opls_700-148    C    0.54388000    0.75000000    0.28017982    0.04460000
opls_145-149    C    0.62465011    0.75000000    0.06272032    0.19500000
opls_142-150    C    0.64600983    0.75000000    0.77557965    0.10080000
opls_700-151    C    0.67987009    0.75000000    0.63424946    0.04410000
opls_700-152    C    0.73555982    0.75000000    0.33180972    0.06180000
opls_700-153    C    0.04388000    0.25000000    0.78017982    0.04460000
opls_145-154    C    0.12465011    0.25000000    0.56272032    0.19490000
opls_142-155    C    0.14600983    0.25000000    0.27557965    0.10080000
opls_700-156    C    0.17987009    0.25000000    0.13424946    0.04410000
opls_700-157    C    0.23555982    0.25000000    0.83180972    0.06180000
opls_700-158    C    0.45612000    0.75000000    0.28017982    0.04460000
opls_145-159    C    0.37534989    0.75000000    0.06272032    0.19490000
opls_142-160    C    0.35399017    0.75000000    0.77557965    0.10090000
opls_700-161    C    0.32012991    0.75000000    0.63424946    0.04410000
opls_700-162    C    0.26444018    0.75000000    0.33180972    0.06180000
opls_700-163    C    0.95612000    0.25000000    0.78017982    0.04460000
opls_145-164    C    0.87534989    0.25000000    0.56272032    0.19490000
opls_142-165    C    0.85399017    0.25000000    0.27557965    0.10080000
opls_700-166    C    0.82012991    0.25000000    0.13424946    0.04410000
opls_700-167    C    0.76444018    0.25000000    0.83180972    0.06180000
opls_700-168    C    0.50000000    0.29020995    0.47702972    0.04460000
opls_145-169    C    0.50000000    0.36387990    0.25740977    0.19510000
opls_142-170    C    0.50000000    0.38750008    0.97349955    0.09990000
opls_700-171    C    0.50000000    0.42122013    0.84155975    0.05190000
opls_700-172    C    0.50000000    0.48337991    0.57200995    0.06190000
opls_700-173    C    0.00000000    0.79020995    0.97702972    0.04460000
opls_145-174    C    0.00000000    0.86387990    0.75740977    0.19510000
opls_142-175    C    0.00000000    0.88750008    0.47349955    0.09990000
opls_700-176    C    0.00000000    0.92122013    0.34155975    0.05190000
opls_700-177    C    0.00000000    0.98337991    0.07200995    0.06190000
opls_700-178    C    0.50000000    0.20979005    0.47702972    0.04460000
opls_145-179    C    0.50000000    0.13612010    0.25740977    0.19510000
opls_142-180    C    0.50000000    0.11249992    0.97349955    0.09990000
opls_700-181    C    0.50000000    0.07877987    0.84155975    0.05190000
opls_700-182    C    0.50000000    0.01662009    0.57200995    0.06190000
opls_700-183    C    0.00000000    0.70979005    0.97702972    0.04460000
opls_145-184    C    0.00000000    0.63612010    0.75740977    0.19510000
opls_142-185    C    0.00000000    0.61249992    0.47349955    0.09990000
opls_700-186    C    0.00000000    0.57877987    0.34155975    0.05190000
opls_700-187    C    0.00000000    0.51662009    0.07200995    0.06190000
opls_700-188    C    0.50000000    0.79020995    0.52297028    0.04460000
opls_145-189    C    0.50000000    0.86387990    0.74259023    0.19510000
opls_142-190    C    0.50000000    0.88750008    0.02650045    0.09990000
opls_700-191    C    0.50000000    0.92122013    0.15844025    0.05190000
opls_700-192    C    0.50000000    0.98337991    0.42799005    0.06190000
opls_700-193    C    0.00000000    0.29020995    0.02297028    0.04460000
opls_145-194    C    0.00000000    0.36387990    0.24259023    0.19510000
opls_142-195    C    0.00000000    0.38750008    0.52650045    0.10000000
opls_700-196    C    0.00000000    0.42122013    0.65844025    0.05190000
opls_700-197    C    0.00000000    0.48337991    0.92799005    0.06190000
opls_700-198    C    0.50000000    0.70979005    0.52297028    0.04460000
opls_145-199    C    0.50000000    0.63612010    0.74259023    0.19510000
opls_142-200    C    0.50000000    0.61249992    0.02650045    0.09990000
opls_700-201    C    0.50000000    0.57877987    0.15844025    0.05190000
opls_700-202    C    0.50000000    0.51662009    0.42799005    0.06190000
opls_700-203    C    0.00000000    0.20979005    0.02297028    0.04460000
opls_145-204    C    0.00000000    0.13612010    0.24259023    0.19520000
opls_142-205    C    0.00000000    0.11249992    0.52650045    0.10000000
opls_700-206    C    0.00000000    0.07877987    0.65844025    0.05190000
opls_700-207    C    0.00000000    0.01662009    0.92799005    0.06190000
opls_701-208    C    0.50000000    0.25000000    0.59858947    0.00390000
opls_701-209    C    0.00000000    0.75000000    0.09858947    0.00390000
opls_701-210    C    0.50000000    0.75000000    0.40141053    0.00390000
opls_701-211    C    0.00000000    0.25000000    0.90141053    0.00390000
opls_146-212    H    0.45151008    0.17879997    0.74531947    0.12140000
opls_146-213    H    0.38142001    0.17946014    0.93328019    0.11550000
opls_146-214    H    0.57752996    0.29452984    0.45205969    0.11840000
opls_146-215    H    0.57682014    0.35858014    0.26248055    0.11550000
opls_146-216    H    0.31757985    0.17935005    0.38381967    0.11240000
opls_146-217    H    0.26951016    0.17821001    0.63794031    0.09420000
opls_146-218    H    0.57694000    0.42427013    0.82544063    0.11330000
opls_146-219    H    0.57817986    0.47721993    0.59789058    0.09420000
opls_146-220    H    0.95151008    0.67879997    0.24531947    0.12140000
opls_146-221    H    0.88142001    0.67946014    0.43328019    0.11550000
opls_146-222    H    0.07752996    0.79452984    0.95205969    0.11840000
opls_146-223    H    0.07682014    0.85858014    0.76248055    0.11550000
opls_146-224    H    0.81757985    0.67935005    0.88381967    0.11240000
opls_146-225    H    0.76951016    0.67821001    0.13794031    0.09420000
opls_146-226    H    0.07694000    0.92427013    0.32544063    0.11320000
opls_146-227    H    0.07817986    0.97721993    0.09789058    0.09420000
opls_146-228    H    0.54848992    0.32120003    0.74531947    0.12140000
opls_146-229    H    0.61857999    0.32053986    0.93328019    0.11550000
opls_146-230    H    0.42247004    0.20547016    0.45205969    0.11840000
opls_146-231    H    0.42317986    0.14141986    0.26248055    0.11550000
opls_146-232    H    0.68242015    0.32064995    0.38381967    0.11250000
opls_146-233    H    0.73048984    0.32178999    0.63794031    0.09420000
opls_146-234    H    0.42306000    0.07572987    0.82544063    0.11320000
opls_146-235    H    0.42182014    0.02278007    0.59789058    0.09420000
opls_146-236    H    0.04848992    0.82120003    0.24531947    0.12140000
opls_146-237    H    0.11857999    0.82053986    0.43328019    0.11550000
opls_146-238    H    0.92247004    0.70547016    0.95205969    0.11840000
opls_146-239    H    0.92317986    0.64141986    0.76248055    0.11550000
opls_146-240    H    0.18242015    0.82064995    0.88381967    0.11240000
opls_146-241    H    0.23048984    0.82178999    0.13794031    0.09420000
opls_146-242    H    0.92306000    0.57572987    0.32544063    0.11320000
opls_146-243    H    0.92182014    0.52278007    0.09789058    0.09420000
opls_146-244    H    0.54848992    0.67879997    0.25468053    0.12140000
opls_146-245    H    0.61857999    0.67946014    0.06671981    0.11550000
opls_146-246    H    0.42247004    0.79452984    0.54794031    0.11840000
opls_146-247    H    0.42317986    0.85858014    0.73751945    0.11550000
opls_146-248    H    0.68242015    0.67935005    0.61618033    0.11250000
opls_146-249    H    0.73048984    0.67821001    0.36205969    0.09420000
opls_146-250    H    0.42306000    0.92427013    0.17455937    0.11330000
opls_146-251    H    0.42182014    0.97721993    0.40210942    0.09420000
opls_146-252    H    0.04848992    0.17879997    0.75468053    0.12140000
opls_146-253    H    0.11857999    0.17946014    0.56671981    0.11550000
opls_146-254    H    0.92247004    0.29452984    0.04794031    0.11840000
opls_146-255    H    0.92317986    0.35858014    0.23751945    0.11550000
opls_146-256    H    0.18242015    0.17935005    0.11618033    0.11240000
opls_146-257    H    0.23048984    0.17821001    0.86205969    0.09420000
opls_146-258    H    0.92306000    0.42427013    0.67455937    0.11320000
opls_146-259    H    0.92182014    0.47721993    0.90210942    0.09420000
opls_146-260    H    0.45151008    0.82120003    0.25468053    0.12140000
opls_146-261    H    0.38142001    0.82053986    0.06671981    0.11550000
opls_146-262    H    0.57752996    0.70547016    0.54794031    0.11840000
opls_146-263    H    0.57682014    0.64141986    0.73751945    0.11550000
opls_146-264    H    0.31757985    0.82064995    0.61618033    0.11240000
opls_146-265    H    0.26951016    0.82178999    0.36205969    0.09420000
opls_146-266    H    0.57694000    0.57572987    0.17455937    0.11320000
opls_146-267    H    0.57817986    0.52278007    0.40210942    0.09420000
opls_146-268    H    0.95151008    0.32120003    0.75468053    0.12140000
opls_146-269    H    0.88142001    0.32053986    0.56671981    0.11550000
opls_146-270    H    0.07752996    0.20547016    0.04794031    0.11840000
opls_146-271    H    0.07682014    0.14141986    0.23751945    0.11550000
opls_146-272    H    0.81757985    0.32064995    0.11618033    0.11240000
opls_146-273    H    0.76951016    0.32178999    0.86205969    0.09420000
opls_146-274    H    0.07694000    0.07572987    0.67455937    0.11320000
opls_146-275    H    0.07817986    0.02278007    0.90210942    0.09420000
opls_146-276    H    0.54848992    0.82120003    0.25468053    0.12140000
opls_146-277    H    0.61857999    0.82053986    0.06671981    0.11550000
opls_146-278    H    0.42247004    0.70547016    0.54794031    0.11840000
opls_146-279    H    0.42317986    0.64141986    0.73751945    0.11560000
opls_146-280    H    0.68242015    0.82064995    0.61618033    0.11240000
opls_146-281    H    0.73048984    0.82178999    0.36205969    0.09420000
opls_146-282    H    0.42306000    0.57572987    0.17455937    0.11320000
opls_146-283    H    0.42182014    0.52278007    0.40210942    0.09420000
opls_146-284    H    0.04848992    0.32120003    0.75468053    0.12140000
opls_146-285    H    0.11857999    0.32053986    0.56671981    0.11550000
opls_146-286    H    0.92247004    0.20547016    0.04794031    0.11840000
opls_146-287    H    0.92317986    0.14141986    0.23751945    0.11550000
opls_146-288    H    0.18242015    0.32064995    0.11618033    0.11240000
opls_146-289    H    0.23048984    0.32178999    0.86205969    0.09420000
opls_146-290    H    0.92306000    0.07572987    0.67455937    0.11320000
opls_146-291    H    0.92182014    0.02278007    0.90210942    0.09420000
opls_146-292    H    0.45151008    0.67879997    0.25468053    0.12140000
opls_146-293    H    0.38142001    0.67946014    0.06671981    0.11550000
opls_146-294    H    0.57752996    0.79452984    0.54794031    0.11840000
opls_146-295    H    0.57682014    0.85858014    0.73751945    0.11550000
opls_146-296    H    0.31757985    0.67935005    0.61618033    0.11240000
opls_146-297    H    0.26951016    0.67821001    0.36205969    0.09420000
opls_146-298    H    0.57694000    0.92427013    0.17455937    0.11320000
opls_146-299    H    0.57817986    0.97721993    0.40210942    0.09420000
opls_146-300    H    0.95151008    0.17879997    0.75468053    0.12140000
opls_146-301    H    0.88142001    0.17946014    0.56671981    0.11550000
opls_146-302    H    0.07752996    0.29452984    0.04794031    0.11840000
opls_146-303    H    0.07682014    0.35858014    0.23751945    0.11550000
opls_146-304    H    0.81757985    0.17935005    0.11618033    0.11240000
opls_146-305    H    0.76951016    0.17821001    0.86205969    0.09420000
opls_146-306    H    0.07694000    0.42427013    0.67455937    0.11340000
opls_146-307    H    0.07817986    0.47721993    0.90210942    0.09420000
opls_146-308    H    0.45151008    0.32120003    0.74531947    0.12140000
opls_146-309    H    0.38142001    0.32053986    0.93328019    0.11550000
opls_146-310    H    0.57752996    0.20547016    0.45205969    0.11840000
opls_146-311    H    0.57682014    0.14141986    0.26248055    0.11560000
opls_146-312    H    0.31757985    0.32064995    0.38381967    0.11240000
opls_146-313    H    0.26951016    0.32178999    0.63794031    0.09420000
opls_146-314    H    0.57694000    0.07572987    0.82544063    0.11330000
opls_146-315    H    0.57817986    0.02278007    0.59789058    0.09420000
opls_146-316    H    0.95151008    0.82120003    0.24531947    0.12140000
opls_146-317    H    0.88142001    0.82053986    0.43328019    0.11550000
opls_146-318    H    0.07752996    0.70547016    0.95205969    0.11840000
opls_146-319    H    0.07682014    0.64141986    0.76248055    0.11550000
opls_146-320    H    0.81757985    0.82064995    0.88381967    0.11240000
opls_146-321    H    0.76951016    0.82178999    0.13794031    0.09420000
opls_146-322    H    0.07694000    0.57572987    0.32544063    0.11320000
opls_146-323    H    0.07817986    0.52278007    0.09789058    0.09420000
opls_146-324    H    0.54848992    0.17879997    0.74531947    0.12140000
opls_146-325    H    0.61857999    0.17946014    0.93328019    0.11550000
opls_146-326    H    0.42247004    0.29452984    0.45205969    0.11840000
opls_146-327    H    0.42317986    0.35858014    0.26248055    0.11550000
opls_146-328    H    0.68242015    0.17935005    0.38381967    0.11250000
opls_146-329    H    0.73048984    0.17821001    0.63794031    0.09420000
opls_146-330    H    0.42306000    0.42427013    0.82544063    0.11320000
opls_146-331    H    0.42182014    0.47721993    0.59789058    0.09420000
opls_146-332    H    0.04848992    0.67879997    0.24531947    0.12140000
opls_146-333    H    0.11857999    0.67946014    0.43328019    0.11550000
opls_146-334    H    0.92247004    0.79452984    0.95205969    0.11840000
opls_146-335    H    0.92317986    0.85858014    0.76248055    0.11550000
opls_146-336    H    0.18242015    0.67935005    0.88381967    0.11240000
opls_146-337    H    0.23048984    0.67821001    0.13794031    0.09420000
opls_146-338    H    0.92306000    0.92427013    0.32544063    0.11320000
opls_146-339    H    0.92182014    0.97721993    0.09789058    0.09420000
opls_144-340    H    0.39187002    0.25000000    0.25279939    0.11410000
opls_144-341    H    0.89187002    0.75000000    0.75279939    0.11410000
opls_144-342    H    0.60812998    0.25000000    0.25279939    0.11410000
opls_144-343    H    0.10812998    0.75000000    0.75279939    0.11410000
opls_144-344    H    0.60812998    0.75000000    0.74720061    0.11420000
opls_144-345    H    0.10812998    0.25000000    0.24720061    0.11410000
opls_144-346    H    0.39187002    0.75000000    0.74720061    0.11410000
opls_144-347    H    0.89187002    0.25000000    0.24720061    0.11410000
opls_144-348    H    0.50000000    0.35330015    0.93618033    0.09840000
opls_144-349    H    0.00000000    0.85330015    0.43618033    0.09840000
opls_144-350    H    0.50000000    0.14669985    0.93618033    0.09840000
opls_144-351    H    0.00000000    0.64669985    0.43618033    0.09840000
opls_144-352    H    0.50000000    0.85330015    0.06381967    0.09840000
opls_144-353    H    0.00000000    0.35330015    0.56381967    0.09850000
opls_144-354    H    0.50000000    0.64669985    0.06381967    0.09840000
opls_144-355    H    0.00000000    0.14669985    0.56381967    0.09840000
opls_750-356    N    0.33975992    0.25000000    0.06752965    -0.30180000
opls_750-357    N    0.83975992    0.75000000    0.56752965    -0.30180000
opls_750-358    N    0.66024008    0.25000000    0.06752965    -0.30180000
opls_750-359    N    0.16024008    0.75000000    0.56752965    -0.30180000
opls_750-360    N    0.66024008    0.75000000    0.93247035    -0.30170000
opls_750-361    N    0.16024008    0.25000000    0.43247035    -0.30180000
opls_750-362    N    0.33975992    0.75000000    0.93247035    -0.30180000
opls_750-363    N    0.83975992    0.25000000    0.43247035    -0.30170000
opls_750-364    N    0.50000000    0.39806005    0.13318964    -0.29720000
opls_750-365    N    0.00000000    0.89806005    0.63318964    -0.29720000
opls_750-366    N    0.50000000    0.10193995    0.13318964    -0.29710000
opls_750-367    N    0.00000000    0.60193995    0.63318964    -0.29720000
opls_750-368    N    0.50000000    0.89806005    0.86681036    -0.29710000
opls_750-369    N    0.00000000    0.39806005    0.36681036    -0.29720000
opls_750-370    N    0.50000000    0.60193995    0.86681036    -0.29720000
opls_750-371    N    0.00000000    0.10193995    0.36681036    -0.29720000
