#======================================================================
# Crystal Data Generated By AuToFF
#----------------------------------------------------------------------

data_AuToFF_phase_1

_cell_length_a                         37.9379
_cell_length_b                         37.9379
_cell_length_c                         3.4793
_cell_angle_alpha                      90.00
_cell_angle_beta                       90.00
_cell_angle_gamma                      120.00
_symmetry_space_group_name_H-M_alt     'P 1'
_symmetry_space_group_IT_number        1

loop_
_space_group_symop_operation_xyz
   'x, y, z'

loop_
   _atom_site_label
   _atom_site_type_symbol
   _atom_site_fract_x
   _atom_site_fract_y
   _atom_site_fract_z
   _atom_site_charge
opls_750-0    N    0.88734008    0.45095006    0.50000000    -0.34560000
opls_750-1    N    0.11266999    0.54873005    0.50000000    -0.34560000
opls_750-2    N    0.54904980    0.43638981    0.50000000    -0.34560000
opls_750-3    N    0.45127000    0.56393982    0.50000000    -0.34560000
opls_750-4    N    0.56361012    0.11266013    0.50000000    -0.34560000
opls_750-5    N    0.43605985    0.88732983    0.50000000    -0.34560000
opls_142-6    C    0.91394989    0.43887982    0.50000000    0.06800000
opls_142-7    C    0.56112004    0.47506984    0.50000000    0.06920000
opls_142-8    C    0.52492990    0.08603998    0.50000000    0.06800000
opls_700-9    C    0.95815999    0.46929998    0.50000000    -0.03780000
opls_700-10    C    0.04180993    0.53031987    0.50000000    -0.03650000
opls_700-11    C    0.53069982    0.48886980    0.50000000    -0.03780000
opls_700-12    C    0.46967985    0.51147992    0.50000000    -0.03220000
opls_700-13    C    0.51113002    0.04182992    0.50000000    -0.03760000
opls_700-14    C    0.48852008    0.95819991    0.50000000    -0.03240000
opls_166-15    C    0.98886983    0.45834981    0.50000000    0.25380000
opls_145-16    C    0.02967991    0.48866983    0.50000000    -0.23770000
opls_166-17    C    0.54165002    0.53051984    0.50000000    0.25460000
opls_145-18    C    0.51132992    0.54100007    0.50000000    -0.23820000
opls_166-19    C    0.46948000    0.01113005    0.50000000    0.25460000
opls_145-20    C    0.45899976    0.97031976    0.50000000    -0.23820000
opls_166-21    C    0.01109007    0.54126000    0.50000000    0.25460000
opls_145-22    C    0.97029000    0.51093998    0.50000000    -0.24370000
opls_166-23    C    0.45873993    0.46982988    0.50000000    0.25460000
opls_145-24    C    0.48905992    0.45934995    0.50000000    -0.24140000
opls_166-25    C    0.53016985    0.98890982    0.50000000    0.25460000
opls_145-26    C    0.54065008    0.02971007    0.50000000    -0.24140000
opls_145-27    C    0.17904004    0.55406984    0.50000000    -0.17000000
opls_145-28    C    0.82306990    0.38347001    0.50000000    -0.17200000
opls_145-29    C    0.44592995    0.62497006    0.50000000    -0.17840000
opls_145-30    C    0.61652990    0.43959995    0.50000000    -0.17200000
opls_145-31    C    0.37502986    0.82095979    0.50000000    -0.15550000
opls_145-32    C    0.56039994    0.17693004    0.50000000    -0.17200000
opls_145-33    C    0.22156997    0.57621003    0.50000000    -0.13270000
opls_145-34    C    0.78050996    0.36111007    0.50000000    -0.13380000
opls_145-35    C    0.42378990    0.64536988    0.50000000    -0.13380000
opls_145-36    C    0.63888997    0.41939980    0.50000000    -0.13380000
opls_145-37    C    0.35462998    0.77842983    0.50000000    -0.13380000
opls_145-38    C    0.58060993    0.21948983    0.50000000    -0.13380000
opls_145-39    C    0.38374012    0.56061006    0.50000000    -0.16640000
opls_145-40    C    0.62469987    0.17896990    0.50000000    -0.17000000
opls_145-41    C    0.43938991    0.82312992    0.50000000    -0.17200000
opls_145-42    C    0.82102984    0.44572988    0.50000000    -0.17900000
opls_145-43    C    0.17686998    0.61626002    0.50000000    -0.17200000
opls_145-44    C    0.55426988    0.37529991    0.50000000    -0.17000000
opls_145-45    C    0.36130985    0.58074995    0.50000000    -0.13370000
opls_145-46    C    0.64516988    0.22150990    0.50000000    -0.13270000
opls_145-47    C    0.41924987    0.78055978    0.50000000    -0.13380000
opls_145-48    C    0.77850001    0.42366001    0.50000000    -0.13270000
opls_145-49    C    0.21942986    0.63868996    0.50000000    -0.13380000
opls_145-50    C    0.57634013    0.35483009    0.50000000    -0.13270000
opls_700-51    C    0.35618995    0.64596978    0.50000000    0.06190000
opls_700-52    C    0.64590012    0.28978009    0.50000000    0.06190000
opls_700-53    C    0.35403003    0.71021991    0.50000000    0.06200000
opls_700-54    C    0.71021993    0.35613004    0.50000000    0.06190000
opls_700-55    C    0.28977987    0.64381000    0.50000000    0.06190000
opls_700-56    C    0.64386995    0.35409992    0.50000000    0.06190000
opls_145-57    C    0.42638988    0.58267994    0.50000000    0.19200000
opls_145-58    C    0.58241993    0.15630012    0.50000000    0.19190000
opls_145-59    C    0.41731991    0.84369988    0.50000000    0.19190000
opls_145-60    C    0.84370002    0.42611989    0.50000000    0.19190000
opls_145-61    C    0.15629980    0.57360983    0.50000000    0.19190000
opls_145-62    C    0.57388005    0.41757999    0.50000000    0.19190000
opls_700-63    C    0.38057999    0.62388986    0.50000000    0.06360000
opls_700-64    C    0.62376008    0.24331011    0.50000000    0.06360000
opls_700-65    C    0.37610998    0.75668989    0.50000000    0.06360000
opls_700-66    C    0.75668998    0.38045009    0.50000000    0.06210000
opls_700-67    C    0.24330988    0.61941995    0.50000000    0.06360000
opls_700-68    C    0.61954995    0.37623980    0.50000000    0.06360000
opls_145-69    C    0.37560979    0.68884977    0.50000000    -0.14680000
opls_145-70    C    0.62438998    0.31120989    0.50000000    -0.13440000
opls_145-71    C    0.31114996    0.68675999    0.50000000    -0.14680000
opls_145-72    C    0.68879001    0.31318005    0.50000000    -0.14680000
opls_145-73    C    0.31324010    0.62438994    0.50000000    -0.14670000
opls_145-74    C    0.68682000    0.37561006    0.50000000    -0.13440000
opls_142-75    C    0.47473996    0.91397980    0.50000000    0.06940000
opls_142-76    C    0.08601991    0.56075981    0.50000000    0.06930000
opls_142-77    C    0.43923983    0.52525978    0.50000000    0.06950000
opls_167-78    O    0.98134003    0.41832995    0.50000000    -0.45410000
opls_167-79    O    0.58167000    0.56300998    0.50000000    -0.45410000
opls_167-80    O    0.43698997    0.01866007    0.50000000    -0.45400000
opls_167-81    O    0.01859980    0.58125976    0.50000000    -0.45410000
opls_167-82    O    0.41873010    0.43732999    0.50000000    -0.45400000
opls_167-83    O    0.56266993    0.98139989    0.50000000    -0.45410000
opls_146-84    H    0.05198990    0.47885981    0.50000000    0.12000000
opls_146-85    H    0.52113985    0.57312985    0.50000000    0.11820000
opls_146-86    H    0.42686994    0.94800974    0.50000000    0.11770000
opls_146-87    H    0.94799003    0.52076004    0.50000000    0.11920000
opls_146-88    H    0.47922980    0.42721987    0.50000000    0.11500000
opls_146-89    H    0.57278015    0.05201005    0.50000000    0.11500000
opls_146-90    H    0.16337005    0.52113989    0.50000000    0.11500000
opls_146-91    H    0.83925985    0.36685985    0.50000000    0.11940000
opls_146-92    H    0.47885991    0.64223004    0.50000000    0.11500000
opls_146-93    H    0.63313997    0.47239995    0.50000000    0.11930000
opls_146-94    H    0.35776989    0.83662977    0.50000000    0.11500000
opls_146-95    H    0.52760003    0.16073990    0.50000000    0.11930000
opls_146-96    H    0.23613002    0.55814987    0.50000000    0.09510000
opls_146-97    H    0.76753000    0.32865005    0.50000000    0.09510000
opls_146-98    H    0.44184992    0.67798999    0.50000000    0.09510000
opls_146-99    H    0.67135001    0.43887982    0.50000000    0.09510000
opls_146-100    H    0.32200990    0.76386988    0.50000000    0.09510000
opls_146-101    H    0.56111984    0.23246982    0.50000000    0.09510000
opls_146-102    H    0.36718012    0.52781007    0.50000000    0.11930000
opls_146-103    H    0.64189004    0.16322992    0.50000000    0.11500000
opls_146-104    H    0.47219000    0.83936997    0.50000000    0.11930000
opls_146-105    H    0.83676995    0.47865984    0.50000000    0.11500000
opls_146-106    H    0.16062988    0.63281996    0.50000000    0.11940000
opls_146-107    H    0.52133986    0.35810994    0.50000000    0.11500000
opls_146-108    H    0.32884988    0.56120996    0.50000000    0.09510000
opls_146-109    H    0.67778000    0.23600990    0.50000000    0.09510000
opls_146-110    H    0.43878997    0.76763975    0.50000000    0.09510000
opls_146-111    H    0.76398996    0.44177008    0.50000000    0.09510000
opls_146-112    H    0.23236000    0.67114998    0.50000000    0.09510000
opls_146-113    H    0.55823004    0.32222002    0.50000000    0.09510000
opls_146-114    H    0.29794006    0.59219989    0.50000000    0.24090000
opls_146-115    H    0.70563003    0.29782996    0.50000000    0.24090000
opls_146-116    H    0.40780000    0.70573995    0.50000000    0.24090000
opls_146-117    H    0.70216997    0.40779980    0.50000000    0.24090000
opls_146-118    H    0.29426005    0.70205986    0.50000000    0.24090000
opls_146-119    H    0.59219984    0.29436993    0.50000000    0.24090000
opls_168-120    H    0.04782003    0.60371984    0.50000000    0.29980000
opls_168-121    H    0.39627999    0.44410000    0.50000000    0.29970000
opls_168-122    H    0.55589983    0.95217985    0.50000000    0.29970000
opls_144-123    H    0.90384008    0.40695001    0.50000000    0.10330000
opls_168-124    H    0.95212982    0.39586988    0.50000000    0.29970000
opls_144-125    H    0.40732009    0.50342001    0.50000000    0.10330000
opls_144-126    H    0.59304992    0.49688984    0.50000000    0.10330000
opls_168-127    H    0.60413001    0.55626980    0.50000000    0.29980000
opls_144-128    H    0.49657995    0.90389981    0.50000000    0.10330000
opls_144-129    H    0.50310999    0.09615011    0.50000000    0.10330000
opls_168-130    H    0.44373001    0.04787006    0.50000000    0.29970000
opls_144-131    H    0.09609981    0.59267988    0.50000000    0.10330000
