#======================================================================
# Crystal Data Generated By AuToFF
#----------------------------------------------------------------------

data_AuToFF_phase_1

_cell_length_a                         15.9597
_cell_length_b                         15.9597
_cell_length_c                         3.5032
_cell_angle_alpha                      90.00
_cell_angle_beta                       90.00
_cell_angle_gamma                      120.00
_symmetry_space_group_name_H-M_alt     'P 1'
_symmetry_space_group_IT_number        1

loop_
_space_group_symop_operation_xyz
   'x, y, z'

loop_
   _atom_site_label
   _atom_site_type_symbol
   _atom_site_fract_x
   _atom_site_fract_y
   _atom_site_fract_z
   _atom_site_charge
opls_916-0    C    0.45309946    0.97339943    0.46657913    0.12310000
opls_145-1    C    0.48499000    0.93175999    0.59139073    -0.20330000
opls_145-2    C    0.44825012    0.83482991    0.59370005    0.06870000
opls_145-3    C    0.37632020    0.77730002    0.46800925    -0.19620000
opls_145-4    C    0.34324016    0.82031992    0.34274949    0.07110000
opls_145-5    C    0.38203987    0.91752999    0.34489895    -0.20340000
opls_142-6    C    0.54985004    0.41278992    0.50528945    0.09690000
opls_145-7    C    0.60693992    0.37722000    0.53424012    -0.11590000
opls_280-8    C    0.56457972    0.27466970    0.55156999    0.23410000
opls_148-9    C    0.48639966    0.79568947    0.73392042    -0.41080000
opls_148-10    C    0.26806979    0.76551983    0.20353106    -0.41080000
opls_916-11    C    0.02659981    0.47970012    0.46657913    0.12310000
opls_145-12    C    0.06824001    0.55322971    0.59139073    -0.20330000
opls_145-13    C    0.16516972    0.61341995    0.59370005    0.06870000
opls_145-14    C    0.22270025    0.59901993    0.46800925    -0.19620000
opls_145-15    C    0.17968012    0.52291971    0.34274949    0.07110000
opls_145-16    C    0.08247024    0.46451003    0.34489895    -0.20340000
opls_142-17    C    0.58721031    0.13706028    0.50528945    0.09690000
opls_145-18    C    0.62278005    0.22972020    0.53424012    -0.11590000
opls_280-19    C    0.72532980    0.28990971    0.55156999    0.23410000
opls_148-20    C    0.20430956    0.69070963    0.73392042    -0.41080000
opls_148-21    C    0.23448020    0.50255001    0.20353106    -0.41080000
opls_916-22    C    0.52029974    0.54689972    0.46657913    0.12310000
opls_145-23    C    0.44676962    0.51500958    0.59139073    -0.20330000
opls_145-24    C    0.38658016    0.55175013    0.59370005    0.06870000
opls_145-25    C    0.40098017    0.62368005    0.46800925    -0.19620000
opls_145-26    C    0.47707999    0.65675964    0.34274949    0.07110000
opls_145-27    C    0.53548989    0.61795998    0.34489895    -0.20330000
opls_142-28    C    0.86293965    0.45014980    0.50528945    0.09690000
opls_145-29    C    0.77028003    0.39305980    0.53424012    -0.11590000
opls_280-30    C    0.71009011    0.43541986    0.55156999    0.23410000
opls_148-31    C    0.30928980    0.51360018    0.73392042    -0.41060000
opls_148-32    C    0.49744964    0.73192943    0.20353106    -0.41080000
opls_238-33    N    0.58210006    0.50954997    0.46563999    -0.27550000
opls_238-34    N    0.49045018    0.07254996    0.46563999    -0.27550000
opls_238-35    N    0.92744976    0.41790007    0.46563999    -0.27550000
opls_281-36    O    0.48130008    0.22787959    0.58537052    -0.40570000
opls_281-37    O    0.77212011    0.25342021    0.58537052    -0.40580000
opls_281-38    O    0.74657945    0.51869948    0.58537052    -0.40590000
opls_146-39    H    0.53785014    0.97535002    0.68948961    0.20350000
opls_146-40    H    0.35756016    0.95068990    0.24992864    0.20340000
opls_910-41    H    0.65054026    0.55296997    0.41981046    0.24690000
opls_144-42    H    0.47491015    0.36454989    0.50252912    0.10080000
opls_140-43    H    0.52886997    0.76975960    0.66518897    0.13670000
opls_140-44    H    0.42838998    0.73747948    0.80876913    0.13680000
opls_140-45    H    0.53165017    0.84871986    0.83634962    0.13380000
opls_140-46    H    0.28419029    0.71708012    0.12895924    0.13680000
opls_140-47    H    0.26137960    0.81127966    0.10067938    0.13370000
opls_140-48    H    0.19963988    0.72483976    0.27313028    0.13660000
opls_146-49    H    0.02464996    0.56250005    0.68948961    0.20340000
opls_146-50    H    0.04931000    0.40687016    0.24992864    0.20340000
opls_910-51    H    0.44702978    0.09756966    0.41981046    0.24700000
opls_144-52    H    0.63545024    0.11035987    0.50252912    0.10080000
opls_140-53    H    0.23023993    0.75910953    0.66518897    0.13670000
opls_140-54    H    0.26251988    0.69091004    0.80876913    0.13680000
opls_140-55    H    0.15127958    0.68292972    0.83634962    0.13370000
opls_140-56    H    0.28292004    0.56710953    0.12895924    0.13680000
opls_140-57    H    0.18871968    0.45009988    0.10067938    0.13370000
opls_140-58    H    0.27516000    0.47479979    0.27313028    0.13660000
opls_146-59    H    0.43749990    0.46214994    0.68948961    0.20340000
opls_146-60    H    0.59312984    0.64243994    0.24992864    0.20350000
opls_910-61    H    0.90242959    0.34945965    0.41981046    0.24690000
opls_144-62    H    0.88963988    0.52508952    0.50252912    0.10080000
opls_140-63    H    0.24089036    0.47113014    0.66518897    0.13670000
opls_140-64    H    0.30908978    0.57160976    0.80876913    0.13680000
opls_140-65    H    0.31706989    0.46834970    0.83634962    0.13370000
opls_140-66    H    0.43288994    0.71580963    0.12895924    0.13690000
opls_140-67    H    0.54989973    0.73861973    0.10067938    0.13370000
opls_140-68    H    0.52519976    0.80035973    0.27313028    0.13660000
MOF2_B_2-69    B    0.33332977    0.66666956    0.46804065    0.17620000
