#======================================================================
# Crystal Data Generated By AuToFF
#----------------------------------------------------------------------

data_AuToFF_phase_1

_cell_length_a                         18.6200
_cell_length_b                         18.6200
_cell_length_c                         3.5200
_cell_angle_alpha                      90.00
_cell_angle_beta                       90.00
_cell_angle_gamma                      120.00
_symmetry_space_group_name_H-M_alt     'P 1'
_symmetry_space_group_IT_number        1

loop_
_space_group_symop_operation_xyz
   'x, y, z'

loop_
   _atom_site_label
   _atom_site_type_symbol
   _atom_site_fract_x
   _atom_site_fract_y
   _atom_site_fract_z
   _atom_site_charge
opls_145-0    C    0.42343994    0.38248997    0.00000000    -0.17100000
opls_145-1    C    0.54453979    0.52013006    0.00000000    -0.17160000
opls_145-2    C    0.61751997    0.04094971    0.00000000    -0.16240000
opls_145-3    C    0.47986985    0.02440995    0.00000000    -0.17160000
opls_145-4    C    0.95905030    0.57656032    0.00000000    -0.16240000
opls_145-5    C    0.97558982    0.45545999    0.00000000    -0.17160000
opls_916-6    C    0.45771023    0.46869006    0.00000000    0.20060000
opls_916-7    C    0.53130999    0.98900988    0.00000000    0.20060000
opls_916-8    C    0.01098986    0.54229014    0.00000000    0.20060000
opls_523-9    C    0.59533984    0.48592995    0.00000000    -0.14980000
opls_523-10    C    0.47457985    0.34805980    0.00000000    -0.11920000
opls_523-11    C    0.51407023    0.10941007    0.00000000    -0.14980000
opls_523-12    C    0.65193978    0.12651973    0.00000000    -0.11860000
opls_523-13    C    0.89058993    0.40465998    0.00000000    -0.14980000
opls_523-14    C    0.87347997    0.52543039    0.00000000    -0.11920000
opls_700-15    C    0.56094013    0.39991033    0.00000000    0.00870000
opls_142-16    C    0.43062028    0.58838019    0.00000000    0.06350000
opls_700-17    C    0.60008973    0.16103983    0.00000000    0.00870000
opls_142-18    C    0.41161992    0.84223017    0.00000000    0.06350000
opls_700-19    C    0.83897004    0.43906039    0.00000000    0.00870000
opls_142-20    C    0.15777019    0.56938034    0.00000000    0.06440000
opls_531-21    C    0.61574012    0.36522031    0.00000000    0.37060000
opls_145-22    C    0.38194032    0.62299020    0.00000000    -0.22550000
opls_531-23    C    0.63477979    0.25051983    0.00000000    0.37060000
opls_145-24    C    0.37701007    0.75895033    0.00000000    -0.21080000
opls_531-25    C    0.74948009    0.38425985    0.00000000    0.37060000
opls_145-26    C    0.24104992    0.61806009    0.00000000    -0.21080000
opls_280-27    C    0.29025987    0.57570018    0.00000000    0.33170000
opls_280-28    C    0.42429991    0.71456008    0.00000000    0.33170000
opls_280-29    C    0.28543999    0.70974035    0.00000000    0.33500000
opls_146-30    H    0.35686029    0.34196010    0.00000000    0.12070000
opls_146-31    H    0.57577025    0.58661031    0.00000000    0.11020000
opls_146-32    H    0.65804015    0.01489018    0.00000000    0.12380000
opls_146-33    H    0.41339027    0.98915003    0.00000000    0.11020000
opls_146-34    H    0.98511008    0.64315034    0.00000000    0.12370000
opls_146-35    H    0.01085041    0.42423036    0.00000000    0.11030000
opls_910-36    H    0.11657005    0.65985009    0.00000000    0.30510000
opls_526-37    H    0.66190973    0.52709981    0.00000000    0.11820000
opls_526-38    H    0.44684020    0.28120994    0.00000000    0.11880000
opls_910-39    H    0.34015007    0.45672012    0.00000000    0.30510000
opls_526-40    H    0.47289995    0.13482031    0.00000000    0.12200000
opls_526-41    H    0.71878981    0.16563010    0.00000000    0.11880000
opls_910-42    H    0.54328019    0.88343042    0.00000000    0.30500000
opls_526-43    H    0.86517971    0.33808981    0.00000000    0.11740000
opls_526-44    H    0.83436999    0.55315995    0.00000000    0.12080000
opls_144-45    H    0.13450992    0.50378999    0.00000000    0.10820000
opls_144-46    H    0.49620988    0.63073017    0.00000000    0.10820000
opls_144-47    H    0.36927043    0.86549039    0.00000000    0.10830000
opls_238-48    N    0.09853974    0.59735982    0.00000000    -0.29210000
opls_238-49    N    0.40263985    0.50117982    0.00000000    -0.29210000
opls_238-50    N    0.49882041    0.90146037    0.00000000    -0.29210000
opls_520-51    N    0.69857016    0.41598994    0.00000000    -0.39980000
opls_520-52    N    0.58401011    0.28257983    0.00000000    -0.39980000
opls_520-53    N    0.71742027    0.30143023    0.00000000    -0.39980000
opls_281-54    O    0.25314015    0.50025023    0.00000000    -0.34810000
opls_281-55    O    0.49975033    0.75290024    0.00000000    -0.34810000
opls_281-56    O    0.24710029    0.74686008    0.00000000    -0.34830000
