#======================================================================
# Crystal Data Generated By AuToFF
#----------------------------------------------------------------------

data_AuToFF_phase_1

_cell_length_a                         44.4930
_cell_length_b                         44.4930
_cell_length_c                         3.9000
_cell_angle_alpha                      90.00
_cell_angle_beta                       90.00
_cell_angle_gamma                      120.00
_symmetry_space_group_name_H-M_alt     'P 1'
_symmetry_space_group_IT_number        1

loop_
_space_group_symop_operation_xyz
   'x, y, z'

loop_
   _atom_site_label
   _atom_site_type_symbol
   _atom_site_fract_x
   _atom_site_fract_y
   _atom_site_fract_z
   _atom_site_charge
opls_700-0    C    0.03652003    0.02144992    0.04494872    0.08270000
opls_145-1    C    0.01488011    0.03606009    0.04434103    -0.06250000
opls_700-2    C    0.07505008    0.04411001    0.05156923    0.07970000
opls_145-3    C    0.09596998    0.03364989    0.22685897    -0.07660000
opls_145-4    C    0.13202997    0.05504999    0.23620000    -0.07470000
opls_700-5    C    0.14801003    0.08754007    0.07350000    0.06850000
opls_145-6    C    0.12736002    0.09808012    0.89811026    -0.07450000
opls_145-7    C    0.09131008    0.07658011    0.88563077    -0.07660000
opls_142-8    C    0.18597993    0.11081990    0.08754872    0.01650000
opls_145-9    C    0.24212012    0.12361002    0.32658974    0.23020000
opls_145-10    C    0.25854011    0.10853012    0.50376923    -0.11110000
opls_145-11    C    0.29434007    0.12707000    0.56225897    -0.07460000
opls_700-12    C    0.31450010    0.16138012    0.44445897    0.08310000
opls_145-13    C    0.29793000    0.17666012    0.26832051    -0.07680000
opls_145-14    C    0.26208993    0.15804990    0.21062051    -0.13410000
opls_700-15    C    0.35250991    0.18127991    0.50976923    0.08250000
opls_145-16    C    0.37250006    0.16484009    0.49313077    -0.07660000
opls_145-17    C    0.40819006    0.18349001    0.55813077    -0.13380000
opls_145-18    C    0.42457000    0.21895008    0.63998974    0.22680000
opls_145-19    C    0.40493986    0.23549994    0.65024103    -0.11110000
opls_145-20    C    0.36918006    0.21687000    0.58926923    -0.07680000
opls_142-21    C    0.48027986    0.22743990    0.82602051    0.01650000
opls_700-22    C    0.51824989    0.24994998    0.85603077    0.07090000
opls_145-23    C    0.53774003    0.23792000    0.03011026    -0.07450000
opls_145-24    C    0.57383002    0.25857007    0.05340000    -0.07660000
opls_700-25    C    0.59135990    0.29146994    0.89617949    0.08210000
opls_145-26    C    0.57157000    0.30334991    0.72135897    -0.07660000
opls_145-27    C    0.53543989    0.28295988    0.70434103    -0.07450000
opls_700-28    C    0.63002003    0.31298007    0.90844103    0.08450000
opls_145-29    C    0.65058997    0.29716986    0.90960000    -0.06250000
opls_700-30    C    0.97855001    0.01507004    0.04494872    0.08270000
opls_700-31    C    0.95589004    0.03093994    0.05156923    0.07970000
opls_145-32    C    0.96635005    0.06232004    0.22685897    -0.07660000
opls_145-33    C    0.94494991    0.07698003    0.23620000    -0.07470000
opls_700-34    C    0.91246001    0.06046989    0.07350000    0.06850000
opls_145-35    C    0.90192003    0.02928003    0.89811026    -0.07450000
opls_145-36    C    0.92342014    0.01473007    0.88563077    -0.07660000
opls_142-37    C    0.88918002    0.07515999    0.08754872    0.01650000
opls_145-38    C    0.87639011    0.11851011    0.32658974    0.23020000
opls_145-39    C    0.89147012    0.15001011    0.50376923    -0.11110000
opls_145-40    C    0.87292995    0.16727002    0.56225897    -0.07460000
opls_700-41    C    0.83862009    0.15311999    0.44445897    0.08310000
opls_145-42    C    0.82333987    0.12126989    0.26832051    -0.07680000
opls_145-43    C    0.84195015    0.10404009    0.21062051    -0.13410000
opls_700-44    C    0.81872003    0.17123009    0.50976923    0.08250000
opls_145-45    C    0.83516010    0.20766001    0.49313077    -0.07660000
opls_145-46    C    0.81651003    0.22470010    0.55813077    -0.13380000
opls_145-47    C    0.78104989    0.20561989    0.63998974    0.22680000
opls_145-48    C    0.76449991    0.16943990    0.65024103    -0.11110000
opls_145-49    C    0.78313004    0.15231001    0.58926923    -0.07680000
opls_142-50    C    0.77256009    0.25284004    0.82602051    0.01650000
opls_700-51    C    0.75004997    0.26829989    0.85603077    0.07090000
opls_145-52    C    0.76207994    0.29981986    0.03011026    -0.07450000
opls_145-53    C    0.74142992    0.31525999    0.05340000    -0.07660000
opls_700-54    C    0.70852991    0.29988994    0.89617949    0.08210000
opls_145-55    C    0.69664993    0.26821995    0.72135897    -0.07660000
opls_145-56    C    0.71703994    0.25248008    0.70434103    -0.07450000
opls_700-57    C    0.68702002    0.31704007    0.90844103    0.08450000
opls_145-58    C    0.70283001    0.35341989    0.90960000    -0.06250000
opls_700-59    C    0.98492996    0.96348003    0.04494872    0.08260000
opls_700-60    C    0.96906010    0.92495005    0.05156923    0.07970000
opls_145-61    C    0.93767997    0.90403007    0.22685897    -0.07670000
opls_145-62    C    0.92301989    0.86796998    0.23620000    -0.07470000
opls_700-63    C    0.93952996    0.85199004    0.07350000    0.06850000
opls_145-64    C    0.97071995    0.87263986    0.89811026    -0.07450000
opls_145-65    C    0.98527013    0.90869009    0.88563077    -0.07660000
opls_142-66    C    0.92483992    0.81401985    0.08754872    0.01650000
opls_145-67    C    0.88149000    0.75787986    0.32658974    0.23020000
opls_145-68    C    0.84999013    0.74146004    0.50376923    -0.11110000
opls_145-69    C    0.83272998    0.70565999    0.56225897    -0.07460000
opls_700-70    C    0.84688004    0.68549990    0.44445897    0.08310000
opls_145-71    C    0.87872991    0.70206999    0.26832051    -0.07680000
opls_145-72    C    0.89595993    0.73791001    0.21062051    -0.13410000
opls_700-73    C    0.82877006    0.64749000    0.50976923    0.08250000
opls_145-74    C    0.79233984    0.62749990    0.49313077    -0.07660000
opls_145-75    C    0.77529990    0.59180989    0.55813077    -0.13380000
opls_145-76    C    0.79438011    0.57543002    0.63998974    0.22660000
opls_145-77    C    0.83055987    0.59505991    0.65024103    -0.11110000
opls_145-78    C    0.84768990    0.63081999    0.58926923    -0.07680000
opls_142-79    C    0.74716006    0.51972007    0.82602051    0.01650000
opls_700-80    C    0.73170001    0.48174988    0.85603077    0.07090000
opls_145-81    C    0.70017990    0.46225988    0.03011026    -0.07450000
opls_145-82    C    0.68474006    0.42616994    0.05340000    -0.07660000
opls_700-83    C    0.70010983    0.40863987    0.89617949    0.08210000
opls_145-84    C    0.73177995    0.42842988    0.72135897    -0.07670000
opls_145-85    C    0.74751995    0.46456004    0.70434103    -0.07450000
opls_700-86    C    0.68295995    0.36997986    0.90844103    0.08450000
opls_145-87    C    0.64657989    0.34940998    0.90960000    -0.06250000
opls_145-88    C    0.96393992    0.97881998    0.04434103    -0.06250000
opls_145-89    C    0.02117997    0.98511993    0.04434103    -0.06250000
opls_750-90    N    0.20517998    0.10325996    0.27966923    -0.27330000
opls_750-91    N    0.46129003    0.23921009    0.69550000    -0.28280000
opls_750-92    N    0.89674003    0.10192004    0.27966923    -0.27320000
opls_750-93    N    0.76079005    0.22207995    0.69550000    -0.28290000
opls_750-94    N    0.89807999    0.79482000    0.27966923    -0.27320000
opls_750-95    N    0.77791992    0.53870996    0.69550000    -0.28280000
opls_146-96    H    0.02672996    0.06546002    0.04333077    0.04990000
opls_146-97    H    0.08352997    0.00749012    0.36311026    0.04990000
opls_146-98    H    0.14868998    0.04614987    0.37671026    0.04930000
opls_146-99    H    0.13991988    0.12436991    0.76412051    0.04990000
opls_146-100    H    0.07474994    0.08527001    0.74002051    0.04990000
opls_144-101    H    0.19871990    0.13567997    0.92910000    0.02940000
opls_146-102    H    0.24272991    0.08077998    0.60267949    0.04990000
opls_146-103    H    0.30738005    0.11436993    0.70640000    0.04990000
opls_146-104    H    0.31371003    0.20446994    0.17096923    0.04990000
opls_146-105    H    0.24907988    0.17091996    0.06892051    0.04990000
opls_146-106    H    0.35962009    0.13609002    0.42623077    0.04990000
opls_146-107    H    0.42412987    0.16990990    0.54478974    0.04990000
opls_146-108    H    0.41804990    0.26443998    0.70870000    0.04990000
opls_146-109    H    0.35330999    0.23051993    0.60382051    0.04990000
opls_144-110    H    0.46764006    0.19942998    0.91892051    0.02940000
opls_146-111    H    0.52418000    0.21111998    0.15401026    0.04990000
opls_146-112    H    0.58941988    0.24883999    0.20088974    0.04990000
opls_146-113    H    0.58501002    0.32986990    0.59174872    0.04990000
opls_146-114    H    0.51970993    0.29311999    0.56644872    0.04990000
opls_146-115    H    0.63777001    0.26767002    0.91152051    0.04990000
opls_146-116    H    0.99250994    0.07604004    0.36311026    0.04990000
opls_146-117    H    0.95384986    0.10252992    0.37671026    0.04990000
opls_146-118    H    0.87563001    0.01556003    0.76412051    0.04990000
opls_144-119    H    0.86431997    0.06303996    0.92910000    0.02940000
opls_146-120    H    0.91921991    0.16195003    0.60267949    0.04990000
opls_146-121    H    0.88562997    0.19300987    0.70640000    0.04990000
opls_146-122    H    0.79552999    0.10923991    0.17096923    0.04990000
opls_146-123    H    0.82908004    0.07816009    0.06892051    0.04990000
opls_146-124    H    0.86391001    0.22352991    0.42623077    0.04990000
opls_146-125    H    0.83008998    0.25421993    0.54478974    0.04990000
opls_146-126    H    0.73554997    0.15360011    0.70870000    0.04990000
opls_146-127    H    0.76948005    0.12278993    0.60382051    0.04980000
opls_144-128    H    0.80057011    0.26821009    0.91892051    0.02940000
opls_146-129    H    0.78888003    0.31306000    0.15401026    0.04990000
opls_146-130    H    0.75115999    0.34057994    0.20088974    0.04990000
opls_146-131    H    0.67012992    0.25513994    0.59174872    0.04990000
opls_146-132    H    0.70688004    0.22658995    0.56644872    0.04990000
opls_146-133    H    0.73233003    0.37010002    0.91152051    0.04990000
opls_146-134    H    0.92395987    0.91646984    0.36311026    0.04990000
opls_146-135    H    0.89746994    0.85131009    0.37671026    0.04990000
opls_146-136    H    0.98443998    0.86007993    0.76412051    0.04990000
opls_144-137    H    0.93696013    0.80128008    0.92910000    0.02940000
opls_146-138    H    0.83804996    0.75726998    0.60267949    0.04990000
opls_146-139    H    0.80699008    0.69261994    0.70640000    0.04990000
opls_146-140    H    0.89075985    0.68628989    0.17096923    0.04990000
opls_146-141    H    0.92184008    0.75091995    0.06892051    0.04990000
opls_146-142    H    0.77647013    0.64038008    0.42623077    0.04990000
opls_146-143    H    0.74578001    0.57586992    0.54478974    0.04990000
opls_146-144    H    0.84639991    0.58195991    0.70870000    0.04990000
opls_146-145    H    0.87721005    0.64668989    0.60382051    0.04990000
opls_144-146    H    0.73179006    0.53235993    0.91892051    0.02930000
opls_146-147    H    0.68693997    0.47582001    0.15401026    0.04990000
opls_146-148    H    0.65942012    0.41058007    0.20088974    0.04990000
opls_146-149    H    0.74485993    0.41498990    0.59174872    0.04990000
opls_146-150    H    0.77341004    0.48029005    0.56644872    0.04990000
opls_146-151    H    0.62989996    0.36222996    0.91152051    0.04990000
opls_146-152    H    0.93454007    0.96126992    0.04333077    0.04990000
opls_146-153    H    0.91473008    0.98947993    0.74002051    0.04990000
opls_146-154    H    0.03872997    0.97327006    0.04333077    0.04990000
opls_146-155    H    0.01051998    0.92525006    0.74002051    0.04990000
