#======================================================================
# Crystal Data Generated By AuToFF
#----------------------------------------------------------------------

data_AuToFF_phase_1

_cell_length_a                         25.6328
_cell_length_b                         25.3789
_cell_length_c                         4.8489
_cell_angle_alpha                      90.00
_cell_angle_beta                       90.00
_cell_angle_gamma                      90.00
_symmetry_space_group_name_H-M_alt     'P 1'
_symmetry_space_group_IT_number        1

loop_
_space_group_symop_operation_xyz
   'x, y, z'

loop_
   _atom_site_label
   _atom_site_type_symbol
   _atom_site_fract_x
   _atom_site_fract_y
   _atom_site_fract_z
   _atom_site_charge
opls_700-0    C    0.48881004    0.68728984    0.53082967    0.06900000
opls_145-1    C    0.46114002    0.71865999    0.34173936    -0.12400000
opls_145-2    C    0.45764996    0.77313004    0.37785065    -0.16560000
opls_145-3    C    0.51422981    0.76724011    0.77528099    -0.16690000
opls_145-4    C    0.51496988    0.71234017    0.74968962    -0.12960000
opls_145-5    C    0.48487017    0.79794002    0.59084947    0.20260000
opls_145-6    C    0.51526989    0.19305998    0.59011941    0.19950000
opls_145-7    C    0.48587981    0.22364011    0.77509951    -0.16550000
opls_145-8    C    0.48511985    0.27854005    0.75058054    -0.12930000
opls_145-9    C    0.53936987    0.27257013    0.34393986    -0.12430000
opls_145-10    C    0.54269998    0.21805988    0.37825074    -0.16540000
opls_700-11    C    0.51147982    0.30372002    0.53296005    0.06820000
opls_700-12    C    0.49192012    0.62836017    0.49639093    -0.06560000
opls_543-13    C    0.44709006    0.59836006    0.47733919    0.21490000
opls_543-14    C    0.54006000    0.60432997    0.47312999    0.21490000
opls_716-15    C    0.58566017    0.63333005    0.46362061    -0.19590000
opls_716-16    C    0.62485995    0.59855983    0.45866898    -0.19590000
opls_543-17    C    0.60233997    0.54909984    0.44953907    0.21490000
opls_716-18    C    0.39805015    0.62098988    0.47441069    -0.19590000
opls_716-19    C    0.36415998    0.58202010    0.42606983    -0.19580000
opls_543-20    C    0.39257982    0.53575017    0.42757945    0.21490000
opls_700-21    C    0.50840017    0.36262013    0.49962053    -0.06590000
opls_543-22    C    0.46041985    0.38654985    0.46987977    0.21490000
opls_543-23    C    0.55333011    0.39258006    0.48626080    0.21490000
opls_716-24    C    0.60233997    0.36988995    0.48880983    -0.19600000
opls_716-25    C    0.63645017    0.40886997    0.44457918    -0.19580000
opls_543-26    C    0.60804009    0.45513005    0.44236012    0.21490000
opls_716-27    C    0.41488991    0.35753007    0.45469900    -0.19610000
opls_716-28    C    0.37567999    0.39223016    0.44164037    -0.19600000
opls_543-29    C    0.39821011    0.44174019    0.43586999    0.21490000
opls_700-30    C    0.63209013    0.50383980    0.43696096    -0.06630000
opls_700-31    C    0.36845994    0.48701008    0.42141929    -0.06570000
opls_700-32    C    0.30978005    0.48358991    0.42609045    0.07010000
opls_700-33    C    0.69075013    0.50751018    0.43980078    0.06900000
opls_145-34    C    0.71964007    0.48297011    0.64969993    -0.12150000
opls_145-35    C    0.77408008    0.48482992    0.65018045    -0.16420000
opls_145-36    C    0.80097999    0.51374015    0.44722102    0.19490000
opls_145-37    C    0.77215014    0.54009000    0.24475036    -0.16800000
opls_145-38    C    0.71773002    0.53599013    0.23660005    -0.12800000
opls_145-39    C    0.28209013    0.45529988    0.22405082    -0.12880000
opls_145-40    C    0.22754010    0.45230999    0.23310029    -0.16490000
opls_145-41    C    0.19960012    0.48026983    0.43324053    0.19200000
opls_145-42    C    0.22708015    0.50831990    0.63604941    -0.16800000
opls_145-43    C    0.28146008    0.50873994    0.63643094    -0.11680000
opls_142-44    C    0.51709997    0.88466009    0.71135928    0.02270000
opls_142-45    C    0.11401017    0.51557987    0.52372084    0.07140000
opls_142-46    C    0.88982983    0.49519995    0.60547959    0.07110000
opls_142-47    C    0.48324998    0.10631982    0.71294933    0.01840000
opls_528-48    C    0.55055008    0.97680002    0.72789086    0.03450000
opls_528-49    C    0.50835999    0.94178983    0.72493968    0.19060000
opls_528-50    C    0.44981001    0.01419013    0.73102972    0.02130000
opls_528-51    C    0.49198995    0.04919993    0.72531914    0.19060000
opls_145-52    C    0.02555008    0.55223000    0.46888985    -0.24090000
opls_700-53    C    0.05693018    0.50926005    0.54423065    -0.04870000
opls_166-54    C    0.03299015    0.46323008    0.64802945    0.25720000
opls_145-55    C    0.97861997    0.46019016    0.65922993    -0.23580000
opls_700-56    C    0.94690982    0.50272983    0.57929015    -0.03140000
opls_166-57    C    0.97114010    0.54996001    0.48792922    0.35700000
opls_146-58    H    0.44154014    0.70084007    0.16731011    0.11730000
opls_146-59    H    0.43497004    0.79633002    0.23376023    0.11890000
opls_146-60    H    0.53505001    0.78537998    0.94466993    0.11870000
opls_146-61    H    0.53650986    0.68928007    0.89930912    0.11550000
opls_146-62    H    0.46499992    0.20541001    0.94391924    0.12140000
opls_146-63    H    0.46344995    0.30150992    0.90011961    0.12010000
opls_146-64    H    0.55927991    0.29062016    0.17104910    0.11450000
opls_146-65    H    0.56548017    0.19498993    0.23404071    0.11770000
opls_547-66    H    0.59086015    0.67558011    0.45992906    0.11830000
opls_547-67    H    0.66558004    0.60942988    0.46490957    0.12180000
opls_547-68    H    0.38677008    0.66159999    0.50255934    0.12180000
opls_547-69    H    0.32269007    0.58781980    0.40010930    0.11740000
opls_547-70    H    0.61343006    0.32921994    0.51698942    0.12480000
opls_547-71    H    0.67800006    0.40305017    0.42272062    0.11970000
opls_547-72    H    0.40981009    0.31525007    0.45244901    0.12240000
opls_547-73    H    0.33498993    0.38126002    0.44071026    0.12450000
opls_146-74    H    0.69992002    0.46160984    0.81263998    0.11420000
opls_146-75    H    0.79408999    0.46450004    0.81435996    0.11300000
opls_146-76    H    0.79203989    0.56320999    0.08929035    0.11740000
opls_146-77    H    0.69652984    0.55566987    0.07304956    0.11550000
opls_146-78    H    0.30281007    0.43515992    0.06034977    0.11700000
opls_146-79    H    0.20695983    0.42955999    0.07865908    0.11730000
opls_146-80    H    0.20660989    0.52853000    0.80007012    0.11880000
opls_146-81    H    0.30162019    0.52966007    0.79942049    0.11420000
opls_144-82    H    0.13062990    0.55378011    0.57093980    0.09800000
opls_144-83    H    0.44529002    0.12196983    0.76729980    0.10880000
opls_144-84    H    0.55534003    0.86903018    0.76041989    0.10950000
opls_144-85    H    0.87656986    0.46663015    0.75492998    0.11590000
opls_146-86    H    0.59031007    0.96242981    0.72605952    0.10120000
opls_146-87    H    0.41005001    0.02857019    0.73173091    0.10120000
opls_146-88    H    0.04363004    0.58836002    0.39804079    0.11420000
opls_146-89    H    0.96095003    0.42436000    0.73668048    0.11450000
opls_168-90    H    0.09886981    0.42845986    0.80156943    0.33480000
opls_168-91    H    0.90602002    0.59712005    0.48098950    0.30630000
opls_542-92    N    0.54906019    0.55135999    0.45922993    -0.38190000
opls_542-93    N    0.44492993    0.54473992    0.45177050    -0.38200000
opls_542-94    N    0.55556982    0.44616985    0.46071068    -0.38190000
opls_542-95    N    0.45139002    0.43953993    0.45317907    -0.38190000
opls_750-96    N    0.14369012    0.47743992    0.43701046    -0.34280000
opls_750-97    N    0.48051988    0.85402992    0.61917961    -0.34760000
opls_750-98    N    0.51951016    0.13694014    0.61679969    -0.34760000
opls_750-99    N    0.85696998    0.51855991    0.44198066    -0.33710000
opls_527-100    N    0.45897015    0.96146011    0.72689063    -0.29360000
opls_527-101    N    0.54138994    0.02952019    0.72419930    -0.29360000
Zn2+-102    Zn    0.50023017    0.49546001    0.45623956    0.70330000
opls_167-103    O    0.06123990    0.42066008    0.75562086    -0.45610000
opls_167-104    O    0.94372016    0.59612986    0.42383015    -0.40460000
