#======================================================================
# Crystal Data Generated By AuToFF
#----------------------------------------------------------------------

data_AuToFF_phase_1

_cell_length_a                         25.9900
_cell_length_b                         25.9900
_cell_length_c                         6.8500
_cell_angle_alpha                      90.00
_cell_angle_beta                       90.00
_cell_angle_gamma                      120.00
_symmetry_space_group_name_H-M_alt     'P 1'
_symmetry_space_group_IT_number        1

loop_
_space_group_symop_operation_xyz
   'x, y, z'

loop_
   _atom_site_label
   _atom_site_type_symbol
   _atom_site_fract_x
   _atom_site_fract_y
   _atom_site_fract_z
   _atom_site_charge
opls_520-0    N    0.30375005    0.69706993    0.25000000    -0.43220000
opls_750-1    N    0.49195003    0.50956993    0.25000000    -0.31830000
opls_520-2    N    0.68942997    0.39277990    0.25000000    -0.42800000
opls_520-3    N    0.30292977    0.60667985    0.25000000    -0.43220000
opls_750-4    N    0.49043011    0.98238004    0.25000000    -0.31830000
opls_520-5    N    0.60722000    0.29665008    0.25000000    -0.42800000
opls_520-6    N    0.39332019    0.69625022    0.25000000    -0.43220000
opls_750-7    N    0.01761986    0.50805003    0.25000000    -0.31830000
opls_520-8    N    0.70335003    0.31057002    0.25000000    -0.42800000
opls_520-9    N    0.69624995    0.30293007    0.75000000    -0.43220000
opls_750-10    N    0.50804997    0.49043007    0.75000000    -0.31830000
opls_520-11    N    0.31057003    0.60722010    0.75000000    -0.42800000
opls_520-12    N    0.69707023    0.39332015    0.75000000    -0.43220000
opls_750-13    N    0.50956989    0.01761996    0.75000000    -0.31830000
opls_520-14    N    0.39278000    0.70334992    0.75000000    -0.42800000
opls_520-15    N    0.60668004    0.30375022    0.75000000    -0.43220000
opls_750-16    N    0.98238014    0.49194997    0.75000000    -0.31830000
opls_520-17    N    0.29664997    0.68942998    0.75000000    -0.42800000
opls_531-18    C    0.27289029    0.63686023    0.25000000    0.37490000
opls_700-19    C    0.20705995    0.60437000    0.25000000    -0.00010000
opls_523-20    C    0.45806978    0.63291985    0.25000000    -0.11870000
opls_145-21    C    0.48859005    0.60139017    0.25000000    -0.15820000
opls_145-22    C    0.45773997    0.53921983    0.25000000    0.20510000
opls_145-23    C    0.39512992    0.50872001    0.25000000    -0.15700000
opls_523-24    C    0.36455024    0.54023014    0.25000000    -0.12100000
opls_142-25    C    0.47166024    0.45259019    0.25000000    0.07490000
opls_700-26    C    0.51271021    0.42883019    0.25000000    0.06320000
opls_145-27    C    0.48955005    0.36716012    0.25000000    -0.11270000
opls_523-28    C    0.52747992    0.34356007    0.25000000    -0.11990000
opls_700-29    C    0.58947004    0.38127022    0.25000000    0.00040000
opls_523-30    C    0.61259002    0.44311001    0.25000000    -0.12140000
opls_145-31    C    0.57463015    0.46667007    0.25000000    -0.11770000
opls_531-32    C    0.62970994    0.35627022    0.25000000    0.37490000
opls_531-33    C    0.36313998    0.63602986    0.25000000    0.37490000
opls_700-34    C    0.39563019    0.60269015    0.25000000    -0.00010000
opls_523-35    C    0.36707989    0.82515017    0.25000000    -0.11870000
opls_145-36    C    0.39861006    0.88720011    0.25000000    -0.15820000
opls_145-37    C    0.46077986    0.91852008    0.25000000    0.20510000
opls_145-38    C    0.49128011    0.88641017    0.25000000    -0.15830000
opls_523-39    C    0.45976975    0.82431980    0.25000000    -0.12100000
opls_142-40    C    0.54741001    0.01907011    0.25000000    0.07490000
opls_700-41    C    0.57117007    0.08387995    0.25000000    0.06320000
opls_145-42    C    0.63283977    0.12238982    0.25000000    -0.11270000
opls_523-43    C    0.65644015    0.18391994    0.25000000    -0.11990000
opls_700-44    C    0.61872996    0.20820020    0.25000000    0.00040000
opls_523-45    C    0.55689015    0.16948018    0.25000000    -0.12140000
opls_145-46    C    0.53333005    0.10795984    0.25000000    -0.11770000
opls_531-47    C    0.64373006    0.27344011    0.25000000    0.37490000
opls_531-48    C    0.36397012    0.72710992    0.25000000    0.37490000
opls_700-49    C    0.39730986    0.79293984    0.25000000    -0.00010000
opls_523-50    C    0.17484995    0.54192998    0.25000000    -0.11870000
opls_145-51    C    0.11280012    0.51141017    0.25000000    -0.15820000
opls_145-52    C    0.08148018    0.54226009    0.25000000    0.20510000
opls_145-53    C    0.11358997    0.60486982    0.25000000    -0.15700000
opls_523-54    C    0.17568001    0.63545006    0.25000000    -0.12100000
opls_142-55    C    0.98092998    0.52834015    0.25000000    0.07490000
opls_700-56    C    0.91612011    0.48728985    0.25000000    0.06320000
opls_145-57    C    0.87761018    0.51045006    0.25000000    -0.11270000
opls_523-58    C    0.81607993    0.47251999    0.25000000    -0.11990000
opls_700-59    C    0.79179984    0.41053003    0.25000000    0.00040000
opls_523-60    C    0.83051983    0.38740981    0.25000000    -0.12140000
opls_145-61    C    0.89204018    0.42537009    0.25000000    -0.11770000
opls_531-62    C    0.72656022    0.37029012    0.25000000    0.37490000
opls_531-63    C    0.72710993    0.36314022    0.75000000    0.37490000
opls_700-64    C    0.79294005    0.39563000    0.75000000    -0.00010000
opls_523-65    C    0.54193022    0.36708015    0.75000000    -0.11870000
opls_145-66    C    0.51140995    0.39860983    0.75000000    -0.15820000
opls_145-67    C    0.54226003    0.46078017    0.75000000    0.20510000
opls_145-68    C    0.60487008    0.49127999    0.75000000    -0.15700000
opls_523-69    C    0.63544976    0.45976986    0.75000000    -0.12090000
opls_142-70    C    0.52833976    0.54740981    0.75000000    0.07490000
opls_700-71    C    0.48728979    0.57116981    0.75000000    0.06320000
opls_145-72    C    0.51044995    0.63283988    0.75000000    -0.11270000
opls_523-73    C    0.47252008    0.65643993    0.75000000    -0.11990000
opls_700-74    C    0.41052996    0.61872978    0.75000000    0.00040000
opls_523-75    C    0.38740998    0.55688999    0.75000000    -0.12140000
opls_145-76    C    0.42536985    0.53332993    0.75000000    -0.11770000
opls_531-77    C    0.37029006    0.64372978    0.75000000    0.37490000
opls_531-78    C    0.63686002    0.36397014    0.75000000    0.37490000
opls_700-79    C    0.60436981    0.39730985    0.75000000    -0.00010000
opls_523-80    C    0.63292011    0.17484983    0.75000000    -0.11870000
opls_145-81    C    0.60138994    0.11279989    0.75000000    -0.15820000
opls_145-82    C    0.53922014    0.08147992    0.75000000    0.20510000
opls_145-83    C    0.50871989    0.11358983    0.75000000    -0.15830000
opls_523-84    C    0.54023025    0.17568020    0.75000000    -0.12100000
opls_142-85    C    0.45258999    0.98092989    0.75000000    0.07490000
opls_700-86    C    0.42882993    0.91612005    0.75000000    0.06320000
opls_145-87    C    0.36716023    0.87761018    0.75000000    -0.11270000
opls_523-88    C    0.34355985    0.81608006    0.75000000    -0.11990000
opls_700-89    C    0.38127004    0.79179980    0.75000000    0.00040000
opls_523-90    C    0.44310985    0.83051982    0.75000000    -0.12140000
opls_145-91    C    0.46666995    0.89204016    0.75000000    -0.11770000
opls_531-92    C    0.35626994    0.72655989    0.75000000    0.37490000
opls_531-93    C    0.63602988    0.27289008    0.75000000    0.37490000
opls_700-94    C    0.60269014    0.20706016    0.75000000    -0.00010000
opls_523-95    C    0.82515005    0.45807002    0.75000000    -0.11870000
opls_145-96    C    0.88719988    0.48858983    0.75000000    -0.15820000
opls_145-97    C    0.91851982    0.45773991    0.75000000    0.20510000
opls_145-98    C    0.88641003    0.39513018    0.75000000    -0.15700000
opls_523-99    C    0.82431999    0.36454994    0.75000000    -0.12100000
opls_142-100    C    0.01907002    0.47165985    0.75000000    0.07490000
opls_700-101    C    0.08387989    0.51271015    0.75000000    0.06330000
opls_145-102    C    0.12238982    0.48954994    0.75000000    -0.11270000
opls_523-103    C    0.18392007    0.52748001    0.75000000    -0.11990000
opls_700-104    C    0.20820016    0.58946997    0.75000000    0.00040000
opls_523-105    C    0.16948017    0.61259019    0.75000000    -0.12140000
opls_145-106    C    0.10795982    0.57462991    0.75000000    -0.11770000
opls_531-107    C    0.27343978    0.62970988    0.75000000    0.37490000
opls_526-108    H    0.48351994    0.68098987    0.25000000    0.12570000
opls_146-109    H    0.53670999    0.62555003    0.25000000    0.12050000
opls_146-110    H    0.36912985    0.46084992    0.25000000    0.12390000
opls_526-111    H    0.31643990    0.51551004    0.25000000    0.12510000
opls_144-112    H    0.42453006    0.42129021    0.25000000    0.12370000
opls_146-113    H    0.44197023    0.33712014    0.25000000    0.12310000
opls_526-114    H    0.50812019    0.29574018    0.25000000    0.12340000
opls_526-115    H    0.66009008    0.47346988    0.25000000    0.12340000
opls_146-116    H    0.59381982    0.51446997    0.25000000    0.12340000
opls_526-117    H    0.31901001    0.80253021    0.25000000    0.12570000
opls_146-118    H    0.37444997    0.91116003    0.25000000    0.12050000
opls_146-119    H    0.53915009    0.90828017    0.25000000    0.12390000
opls_526-120    H    0.48448996    0.80092989    0.25000000    0.12510000
opls_144-121    H    0.57871013    0.00324018    0.25000000    0.12370000
opls_146-122    H    0.66288009    0.10484983    0.25000000    0.12310000
opls_526-123    H    0.70426005    0.21238004    0.25000000    0.12340000
opls_526-124    H    0.52653002    0.18661987    0.25000000    0.12340000
opls_146-125    H    0.48552995    0.07935001    0.25000000    0.12340000
opls_526-126    H    0.19747005    0.51647992    0.25000000    0.12570000
opls_146-127    H    0.08884005    0.46328994    0.25000000    0.12050000
opls_146-128    H    0.09172007    0.63086991    0.25000000    0.12390000
opls_526-129    H    0.19907015    0.68356007    0.25000000    0.12510000
opls_144-130    H    0.99676004    0.57547006    0.25000000    0.12370000
opls_146-131    H    0.89515007    0.55803003    0.25000000    0.12310000
opls_526-132    H    0.78761999    0.49188022    0.25000000    0.12340000
opls_526-133    H    0.81338007    0.33990981    0.25000000    0.12340000
opls_146-134    H    0.92064984    0.40618002    0.25000000    0.12340000
opls_526-135    H    0.51648006    0.31901013    0.75000000    0.12570000
opls_146-136    H    0.46329001    0.37444997    0.75000000    0.12050000
opls_146-137    H    0.63087015    0.53915008    0.75000000    0.12390000
opls_526-138    H    0.68356010    0.48448996    0.75000000    0.12510000
opls_144-139    H    0.57546994    0.57870979    0.75000000    0.12370000
opls_146-140    H    0.55802977    0.66287986    0.75000000    0.12310000
opls_526-141    H    0.49187981    0.70425982    0.75000000    0.12340000
opls_526-142    H    0.33990992    0.52653012    0.75000000    0.12340000
opls_146-143    H    0.40618018    0.48553003    0.75000000    0.12340000
opls_526-144    H    0.68098999    0.19746979    0.75000000    0.12570000
opls_146-145    H    0.62555003    0.08883997    0.75000000    0.12050000
opls_146-146    H    0.46084991    0.09171983    0.75000000    0.12390000
opls_526-147    H    0.51551004    0.19907011    0.75000000    0.12510000
opls_144-148    H    0.42128987    0.99675982    0.75000000    0.12370000
opls_146-149    H    0.33711991    0.89515017    0.75000000    0.12310000
opls_526-150    H    0.29573995    0.78761996    0.75000000    0.12340000
opls_526-151    H    0.47346998    0.81338013    0.75000000    0.12340000
opls_146-152    H    0.51447005    0.92064999    0.75000000    0.12340000
opls_526-153    H    0.80252995    0.48352008    0.75000000    0.12570000
opls_146-154    H    0.91115995    0.53671006    0.75000000    0.12050000
opls_146-155    H    0.90827993    0.36913009    0.75000000    0.12390000
opls_526-156    H    0.80092985    0.31643993    0.75000000    0.12510000
opls_144-157    H    0.00323996    0.42452994    0.75000000    0.12370000
opls_146-158    H    0.10484993    0.44196997    0.75000000    0.12310000
opls_526-159    H    0.21238024    0.50812022    0.75000000    0.12340000
opls_526-160    H    0.18661993    0.66009019    0.75000000    0.12340000
opls_146-161    H    0.07935016    0.59381998    0.75000000    0.12340000
