#======================================================================
# Crystal Data Generated By AuToFF
#----------------------------------------------------------------------

data_AuToFF_phase_1

_cell_length_a                         37.5330
_cell_length_b                         37.5330
_cell_length_c                         3.4900
_cell_angle_alpha                      90.00
_cell_angle_beta                       90.00
_cell_angle_gamma                      120.00
_symmetry_space_group_name_H-M_alt     'P 1'
_symmetry_space_group_IT_number        1

loop_
_space_group_symop_operation_xyz
   'x, y, z'

loop_
   _atom_site_label
   _atom_site_type_symbol
   _atom_site_fract_x
   _atom_site_fract_y
   _atom_site_fract_z
   _atom_site_charge
opls_531-0    C    0.29119998    0.64446002    0.48212034    0.31470000
opls_700-1    C    0.24780988    0.62158998    0.48000860    0.04110000
opls_523-2    C    0.35906001    0.58335007    0.41165903    -0.19580000
opls_145-3    C    0.38180011    0.56291015    0.40700000    -0.22050000
opls_700-4    C    0.42461017    0.58436009    0.47712034    0.09820000
opls_145-5    C    0.44407998    0.62723011    0.54193983    -0.22020000
opls_523-6    C    0.42143012    0.64778017    0.54361891    -0.19590000
opls_142-7    C    0.44924994    0.56571007    0.47587966    -0.10990000
opls_141-8    C    0.43999011    0.52643001    0.61575931    0.03920000
opls_700-9    C    0.46974004    0.51336014    0.61963897    0.05900000
opls_145-10    C    0.45813992    0.47109987    0.61993983    -0.19570000
opls_145-11    C    0.48738997    0.45820998    0.62963037    -0.22020000
opls_423-12    C    0.40310004    0.50111015    0.74965043    0.25810000
opls_531-13    C    0.35554011    0.64675016    0.48212034    0.31480000
opls_700-14    C    0.37840991    0.62620995    0.48000860    0.02600000
opls_523-15    C    0.41664994    0.77571003    0.41165903    -0.19590000
opls_145-16    C    0.43709009    0.81889017    0.40700000    -0.22050000
opls_700-17    C    0.41563986    0.84024996    0.47712034    0.09820000
opls_145-18    C    0.37277005    0.81685014    0.54193983    -0.22020000
opls_523-19    C    0.35221999    0.77365001    0.54361891    -0.19590000
opls_142-20    C    0.43428988    0.88353993    0.47587966    -0.10990000
opls_141-21    C    0.47357005    0.91356005    0.61575931    0.03920000
opls_700-22    C    0.48663986    0.95637993    0.61963897    0.05900000
opls_145-23    C    0.52890005    0.98703996    0.61993983    -0.19570000
opls_145-24    C    0.54179003    0.02917993    0.62963037    -0.22020000
opls_423-25    C    0.49888990    0.90198997    0.74965043    0.25800000
opls_531-26    C    0.35325007    0.70879997    0.48212034    0.31460000
opls_700-27    C    0.37379007    0.75220008    0.48000860    0.04110000
opls_523-28    C    0.22429005    0.64093989    0.41165903    -0.19590000
opls_145-29    C    0.18110996    0.61819999    0.40700000    -0.22050000
opls_700-30    C    0.15974997    0.57538995    0.47712034    0.09820000
opls_145-31    C    0.18315013    0.55592005    0.54193983    -0.22020000
opls_523-32    C    0.22635005    0.57857013    0.54361891    -0.19590000
opls_142-33    C    0.11645991    0.55075000    0.47587966    -0.10990000
opls_141-34    C    0.08644012    0.56002010    0.61575931    0.03920000
opls_700-35    C    0.04362010    0.53025994    0.61963897    0.05900000
opls_145-36    C    0.01296003    0.54186017    0.61993983    -0.19570000
opls_145-37    C    0.97082000    0.51261009    0.62963037    -0.22020000
opls_423-38    C    0.09801006    0.59689988    0.74965043    0.25180000
opls_531-39    C    0.70880002    0.35553998    0.48212034    0.31460000
opls_700-40    C    0.75219998    0.37841002    0.48000860    0.04110000
opls_523-41    C    0.64093999    0.41664993    0.41165903    -0.19590000
opls_145-42    C    0.61820005    0.43709015    0.40700000    -0.22050000
opls_700-43    C    0.57538983    0.41563991    0.47712034    0.09820000
opls_145-44    C    0.55592002    0.37276989    0.54193983    -0.22020000
opls_523-45    C    0.57857004    0.35222014    0.54361891    -0.19590000
opls_142-46    C    0.55075006    0.43428993    0.47587966    -0.10660000
opls_141-47    C    0.56002002    0.47356999    0.61575931    0.03920000
opls_700-48    C    0.53026011    0.48664017    0.61963897    0.06020000
opls_145-49    C    0.54186008    0.52890013    0.61993983    -0.19570000
opls_145-50    C    0.51261003    0.54179002    0.62963037    -0.22020000
opls_423-51    C    0.59690012    0.49889015    0.74965043    0.25180000
opls_531-52    C    0.64446005    0.35325015    0.48212034    0.31470000
opls_700-53    C    0.62159009    0.37379005    0.48000860    0.02600000
opls_523-54    C    0.58335006    0.22428997    0.41165903    -0.19590000
opls_145-55    C    0.56291006    0.18111014    0.40700000    -0.22050000
opls_700-56    C    0.58436014    0.15975004    0.47712034    0.09820000
opls_145-57    C    0.62722995    0.18314986    0.54193983    -0.22020000
opls_523-58    C    0.64778001    0.22634999    0.54361891    -0.19590000
opls_142-59    C    0.56571012    0.11646007    0.47587966    -0.10990000
opls_141-60    C    0.52642995    0.08643995    0.61575931    0.03920000
opls_700-61    C    0.51336014    0.04362007    0.61963897    0.05900000
opls_145-62    C    0.47109995    0.01296004    0.61993983    -0.19570000
opls_145-63    C    0.45820997    0.97082007    0.62963037    -0.22010000
opls_423-64    C    0.50111010    0.09801003    0.74965043    0.25800000
opls_531-65    C    0.64674993    0.29120003    0.48212034    0.31470000
opls_700-66    C    0.62620994    0.24781007    0.48000860    0.04110000
opls_523-67    C    0.77570995    0.35906011    0.41165903    -0.19590000
opls_145-68    C    0.81889004    0.38180001    0.40700000    -0.22040000
opls_700-69    C    0.84025003    0.42461005    0.47712034    0.09820000
opls_145-70    C    0.81684987    0.44407995    0.54193983    -0.22010000
opls_523-71    C    0.77364995    0.42142987    0.54361891    -0.19590000
opls_142-72    C    0.88354009    0.44925000    0.47587966    -0.10990000
opls_141-73    C    0.91355988    0.43997990    0.61575931    0.03920000
opls_700-74    C    0.95637990    0.46974006    0.61963897    0.05900000
opls_145-75    C    0.98704012    0.45814014    0.61993983    -0.19570000
opls_145-76    C    0.02918000    0.48738991    0.62963037    -0.22020000
opls_423-77    C    0.90198994    0.40310012    0.74965043    0.25180000
opls_520-78    N    0.31390990    0.62559988    0.48228080    -0.50650000
opls_753-79    N    0.37078011    0.47838009    0.86249857    -0.39100000
opls_520-80    N    0.37440993    0.68830991    0.48228080    -0.50370000
opls_753-81    N    0.52161999    0.89239992    0.86249857    -0.39090000
opls_520-82    N    0.31168988    0.68608991    0.48228080    -0.50660000
opls_753-83    N    0.10759990    0.62921999    0.86249857    -0.39090000
opls_520-84    N    0.68608996    0.37440997    0.48228080    -0.50380000
opls_753-85    N    0.62921989    0.52161991    0.86249857    -0.39090000
opls_520-86    N    0.62559993    0.31169009    0.48228080    -0.50650000
opls_753-87    N    0.47838001    0.10760008    0.86249857    -0.39100000
opls_520-88    N    0.68831012    0.31391009    0.48228080    -0.50660000
opls_753-89    N    0.89240010    0.37078001    0.86249857    -0.39100000
opls_526-90    H    0.32809005    0.56648996    0.36038968    0.20740000
opls_146-91    H    0.36659995    0.53221997    0.34577937    0.20740000
opls_146-92    H    0.47511010    0.64400008    0.59120917    0.20740000
opls_526-93    H    0.43679997    0.67880015    0.59408023    0.20740000
opls_146-94    H    0.57224994    0.55124009    0.61457020    0.20750000
opls_144-95    H    0.47764988    0.58365988    0.35748997    0.20740000
opls_146-96    H    0.47635993    0.42728998    0.64697135    0.20740000
opls_526-97    H    0.43351002    0.76159015    0.36038968    0.20740000
opls_146-98    H    0.46778002    0.83437016    0.34577937    0.20740000
opls_146-99    H    0.35599994    0.83111000    0.59120917    0.20740000
opls_526-100    H    0.32119987    0.75799988    0.59408023    0.20740000
opls_146-101    H    0.44876001    0.02100015    0.61457020    0.20740000
opls_144-102    H    0.41634991    0.89400001    0.35748997    0.20740000
opls_146-103    H    0.57270998    0.04907008    0.64697135    0.20750000
opls_526-104    H    0.23841005    0.67191988    0.36038968    0.20750000
opls_146-105    H    0.16563002    0.63340002    0.34577937    0.20750000
opls_146-106    H    0.16888995    0.52488992    0.59120917    0.20740000
opls_526-107    H    0.24201002    0.56319996    0.59408023    0.20740000
opls_146-108    H    0.97900005    0.42774992    0.61457020    0.20740000
opls_144-109    H    0.10600007    0.52234996    0.35748997    0.20740000
opls_146-110    H    0.95093008    0.52363994    0.64697135    0.20750000
opls_526-111    H    0.67192007    0.43351004    0.36038968    0.20740000
opls_146-112    H    0.63340005    0.46778003    0.34577937    0.20740000
opls_146-113    H    0.52488990    0.35599992    0.59120917    0.20740000
opls_526-114    H    0.56320019    0.32120015    0.59408023    0.20740000
opls_146-115    H    0.42775006    0.44875991    0.61457020    0.20750000
opls_144-116    H    0.52234998    0.41634997    0.35748997    0.20740000
opls_146-117    H    0.52364007    0.57271002    0.64697135    0.20750000
opls_526-118    H    0.56649013    0.23841015    0.36038968    0.20740000
opls_146-119    H    0.53222013    0.16563014    0.34577937    0.20740000
opls_146-120    H    0.64400006    0.16889000    0.59120917    0.20740000
opls_526-121    H    0.67880013    0.24200012    0.59408023    0.20740000
opls_146-122    H    0.55124015    0.97900016    0.61457020    0.20750000
opls_144-123    H    0.58365995    0.10599999    0.35748997    0.20740000
opls_146-124    H    0.42729002    0.95092992    0.64697135    0.20740000
opls_526-125    H    0.76159007    0.32808996    0.36038968    0.20740000
opls_146-126    H    0.83436998    0.36659998    0.34577937    0.20750000
opls_146-127    H    0.83111005    0.47511008    0.59120917    0.20750000
opls_526-128    H    0.75800011    0.43680004    0.59408023    0.20740000
opls_146-129    H    0.02099995    0.57225008    0.61457020    0.20750000
opls_144-130    H    0.89399993    0.47765004    0.35748997    0.20740000
opls_146-131    H    0.04906992    0.47636006    0.64697135    0.20740000
