#======================================================================
# Crystal Data Generated By AuToFF
#----------------------------------------------------------------------

data_AuToFF_phase_1

_cell_length_a                         37.4786
_cell_length_b                         37.4786
_cell_length_c                         4.9522
_cell_angle_alpha                      90.00
_cell_angle_beta                       90.00
_cell_angle_gamma                      120.00
_symmetry_space_group_name_H-M_alt     'P 1'
_symmetry_space_group_IT_number        1

loop_
_space_group_symop_operation_xyz
   'x, y, z'

loop_
   _atom_site_label
   _atom_site_type_symbol
   _atom_site_fract_x
   _atom_site_fract_y
   _atom_site_fract_z
   _atom_site_charge
opls_145-0    C    0.48338988    0.72720999    0.91096079    -0.11750000
opls_145-1    C    0.55711003    0.75486992    0.91725092    -0.11700000
opls_465-2    C    0.51104015    0.67887004    0.87325027    0.50720000
opls_700-3    C    0.51716987    0.72076986    0.90205969    -0.04120000
opls_145-4    C    0.56318993    0.79463001    0.93827996    -0.11600000
opls_145-5    C    0.48947006    0.76699996    0.93115989    -0.11590000
opls_465-6    C    0.53570983    0.84323985    0.95437987    0.50610000
opls_700-7    C    0.52942996    0.80112991    0.94373006    -0.04030000
opls_145-8    C    0.41725006    0.51208999    0.96162917    -0.20480000
opls_700-9    C    0.51956014    0.51713014    0.49592908    -0.02610000
opls_145-10    C    0.62741005    0.53167997    0.39053956    -0.18490000
opls_145-11    C    0.59512984    0.53572989    0.49631073    -0.11380000
opls_700-12    C    0.44436997    0.48482997    0.62166916    0.06870000
opls_145-13    C    0.55107010    0.57843014    0.81340011    -0.11040000
opls_145-14    C    0.55793009    0.61696000    0.89431970    -0.20630000
opls_700-15    C    0.47272010    0.44123994    0.41667946    0.06940000
opls_166-16    C    0.46116996    0.36448985    0.24025080    0.25110000
opls_145-17    C    0.55102994    0.49341014    0.13848996    -0.12970000
opls_166-18    C    0.62140987    0.50773999    0.15930899    0.25140000
opls_145-19    C    0.50913986    0.57831984    0.44483058    -0.12570000
opls_145-20    C    0.51490000    0.61628990    0.53047938    -0.19610000
opls_145-21    C    0.27278988    0.75617994    0.91096079    -0.11760000
opls_145-22    C    0.24512991    0.80223998    0.91725092    -0.11700000
opls_465-23    C    0.32112999    0.83216996    0.87325027    0.50720000
opls_700-24    C    0.27922999    0.79640002    0.90205969    -0.04120000
opls_145-25    C    0.20536983    0.76855985    0.93827996    -0.11590000
opls_145-26    C    0.23299992    0.72246993    0.93115989    -0.11590000
opls_465-27    C    0.15675995    0.69247001    0.95437987    0.50610000
opls_700-28    C    0.19887010    0.72830003    0.94373006    -0.04030000
opls_145-29    C    0.48791005    0.90516005    0.96162917    -0.20480000
opls_700-30    C    0.48287011    0.00242995    0.49592908    -0.02610000
opls_145-31    C    0.46831989    0.09573004    0.39053956    -0.18490000
opls_145-32    C    0.46427012    0.05939998    0.49631073    -0.11380000
opls_700-33    C    0.51516989    0.95953991    0.62166916    0.06870000
opls_145-34    C    0.42156991    0.97263985    0.81340011    -0.11040000
opls_145-35    C    0.38303992    0.94097005    0.89431970    -0.20630000
opls_700-36    C    0.55876002    0.03148001    0.41667946    0.06940000
opls_166-37    C    0.63550996    0.09667990    0.24025080    0.25110000
opls_145-38    C    0.50659017    0.05762011    0.13848996    -0.12960000
opls_166-39    C    0.49225994    0.11366985    0.15930899    0.25140000
opls_145-40    C    0.42168004    0.93082013    0.44483058    -0.12570000
opls_145-41    C    0.38370993    0.89860993    0.53047938    -0.19610000
opls_145-42    C    0.24381997    0.51661007    0.91096079    -0.11750000
opls_145-43    C    0.19776007    0.44289010    0.91725092    -0.11700000
opls_465-44    C    0.16783012    0.48896000    0.87325027    0.50720000
opls_700-45    C    0.20360015    0.48283012    0.90205969    -0.04120000
opls_145-46    C    0.23143997    0.43681013    0.93827996    -0.11590000
opls_145-47    C    0.27753002    0.51053010    0.93115989    -0.11590000
opls_465-48    C    0.30752996    0.46429014    0.95437987    0.50610000
opls_700-49    C    0.27169994    0.47057006    0.94373006    -0.04030000
opls_145-50    C    0.09483989    0.58274995    0.96162917    -0.20480000
opls_700-51    C    0.99757002    0.48043991    0.49592908    -0.02610000
opls_145-52    C    0.90427006    0.37259000    0.39053956    -0.18490000
opls_145-53    C    0.94060005    0.40487013    0.49631073    -0.11380000
opls_700-54    C    0.04046014    0.55563011    0.62166916    0.06870000
opls_145-55    C    0.02735999    0.44893001    0.81340011    -0.11040000
opls_145-56    C    0.05902999    0.44206995    0.89431970    -0.20630000
opls_700-57    C    0.96852014    0.52728005    0.41667946    0.06940000
opls_166-58    C    0.90331992    0.53882995    0.24025080    0.25110000
opls_145-59    C    0.94238005    0.44897007    0.13848996    -0.12960000
opls_166-60    C    0.88633004    0.37858986    0.15930899    0.25140000
opls_145-61    C    0.06918010    0.49086003    0.44483058    -0.12570000
opls_145-62    C    0.10138991    0.48509986    0.53047938    -0.19610000
opls_145-63    C    0.51661012    0.27279001    0.08903921    -0.11750000
opls_145-64    C    0.44288997    0.24513008    0.08274908    -0.11700000
opls_465-65    C    0.48895985    0.32112996    0.12674973    0.50720000
opls_700-66    C    0.48283013    0.27923014    0.09794031    -0.04120000
opls_145-67    C    0.43681007    0.20536999    0.06172004    -0.11590000
opls_145-68    C    0.51052994    0.23300004    0.06884011    -0.11590000
opls_465-69    C    0.46429017    0.15676015    0.04562013    0.50610000
opls_700-70    C    0.47057004    0.19887009    0.05626994    -0.04030000
opls_145-71    C    0.58274994    0.48791001    0.03837083    -0.20480000
opls_700-72    C    0.48043986    0.48286986    0.50407092    -0.02610000
opls_145-73    C    0.37258995    0.46832003    0.60946044    -0.18490000
opls_145-74    C    0.40487016    0.46427011    0.50368927    -0.11380000
opls_700-75    C    0.55563003    0.51517003    0.37833084    0.06870000
opls_145-76    C    0.44892990    0.42156986    0.18659989    -0.11040000
opls_145-77    C    0.44206991    0.38304000    0.10568030    -0.20630000
opls_700-78    C    0.52727990    0.55876006    0.58332054    0.06940000
opls_166-79    C    0.53882988    0.63550985    0.75974920    0.25110000
opls_145-80    C    0.44897006    0.50658986    0.86151004    -0.12960000
opls_166-81    C    0.37859013    0.49226001    0.84069101    0.25140000
opls_145-82    C    0.49085999    0.42167985    0.55516942    -0.12570000
opls_145-83    C    0.48510000    0.38371010    0.46952062    -0.19610000
opls_145-84    C    0.72721012    0.24382006    0.08903921    -0.11750000
opls_145-85    C    0.75487009    0.19776002    0.08274908    -0.11700000
opls_465-86    C    0.67887001    0.16783004    0.12674973    0.50720000
opls_700-87    C    0.72077001    0.20359998    0.09794031    -0.04120000
opls_145-88    C    0.79463017    0.23144015    0.06172004    -0.11590000
opls_145-89    C    0.76700008    0.27753007    0.06884011    -0.11590000
opls_465-90    C    0.84324005    0.30752999    0.04562013    0.50600000
opls_700-91    C    0.80112990    0.27169997    0.05626994    -0.04030000
opls_145-92    C    0.51208995    0.09483995    0.03837083    -0.20480000
opls_700-93    C    0.51712989    0.99757005    0.50407092    -0.02610000
opls_145-94    C    0.53168011    0.90426996    0.60946044    -0.18490000
opls_145-95    C    0.53572988    0.94060002    0.50368927    -0.11380000
opls_700-96    C    0.48483011    0.04046009    0.37833084    0.06870000
opls_145-97    C    0.57843009    0.02736015    0.18659989    -0.11040000
opls_145-98    C    0.61696008    0.05902995    0.10568030    -0.20630000
opls_700-99    C    0.44123998    0.96851999    0.58332054    0.06940000
opls_166-100    C    0.36449004    0.90332010    0.75974920    0.25110000
opls_145-101    C    0.49340983    0.94237989    0.86151004    -0.12960000
opls_166-102    C    0.50773991    0.88632984    0.84069101    0.25130000
opls_145-103    C    0.57831996    0.06917987    0.55516942    -0.12570000
opls_145-104    C    0.61629007    0.10139007    0.46952062    -0.19610000
opls_145-105    C    0.75618003    0.48338993    0.08903921    -0.11760000
opls_145-106    C    0.80223993    0.55710990    0.08274908    -0.11700000
opls_465-107    C    0.83216988    0.51104000    0.12674973    0.50720000
opls_700-108    C    0.79639985    0.51716988    0.09794031    -0.04120000
opls_145-109    C    0.76856003    0.56318987    0.06172004    -0.11590000
opls_145-110    C    0.72246998    0.48946990    0.06884011    -0.11590000
opls_465-111    C    0.69247004    0.53570986    0.04562013    0.50610000
opls_700-112    C    0.72830006    0.52942994    0.05626994    -0.04030000
opls_145-113    C    0.90516011    0.41725005    0.03837083    -0.20480000
opls_700-114    C    0.00242998    0.51956009    0.50407092    -0.02610000
opls_145-115    C    0.09572994    0.62741000    0.60946044    -0.18490000
opls_145-116    C    0.05939995    0.59512987    0.50368927    -0.11380000
opls_700-117    C    0.95953986    0.44436989    0.37833084    0.06870000
opls_145-118    C    0.97264001    0.55106999    0.18659989    -0.11040000
opls_145-119    C    0.94097001    0.55793005    0.10568030    -0.20630000
opls_700-120    C    0.03147986    0.47271995    0.58332054    0.06940000
opls_166-121    C    0.09668008    0.46117005    0.75974920    0.25110000
opls_145-122    C    0.05761995    0.55102993    0.86151004    -0.12960000
opls_166-123    C    0.11366996    0.62141014    0.84069101    0.25140000
opls_145-124    C    0.93081990    0.50913997    0.55516942    -0.12570000
opls_145-125    C    0.89861009    0.51490014    0.46952062    -0.19610000
opls_146-126    H    0.45223006    0.70154005    0.89957998    0.12350000
opls_146-127    H    0.58377000    0.75092999    0.91140099    0.12350000
opls_146-128    H    0.59436005    0.82033014    0.94719922    0.12230000
opls_146-129    H    0.46283012    0.77099012    0.93479060    0.12300000
opls_146-130    H    0.42202994    0.53036994    0.14097977    0.12350000
opls_146-131    H    0.65683999    0.54656008    0.49275070    0.12300000
opls_146-132    H    0.60181991    0.55408994    0.67485966    0.24940000
opls_146-133    H    0.56316003    0.56368005    0.93922095    0.10910000
opls_146-134    H    0.57670002    0.63162013    0.07042930    0.11950000
opls_146-135    H    0.52289988    0.48163995    0.02624086    0.10920000
opls_146-136    H    0.49038994    0.56453008    0.27068979    0.25120000
opls_146-137    H    0.50092014    0.63079012    0.41723073    0.12240000
opls_146-138    H    0.29846005    0.75068998    0.89957998    0.12350000
opls_146-139    H    0.24907013    0.83284007    0.91140099    0.12340000
opls_146-140    H    0.17967006    0.77403010    0.94719922    0.12240000
opls_146-141    H    0.22901006    0.69183996    0.93479060    0.12300000
opls_146-142    H    0.46962993    0.89165990    0.14097977    0.12350000
opls_146-143    H    0.45344003    0.11027987    0.49275070    0.12300000
opls_146-144    H    0.44591007    0.04772992    0.67485966    0.24950000
opls_146-145    H    0.43632004    0.99947993    0.93922095    0.10920000
opls_146-146    H    0.36838005    0.94508005    0.07042930    0.11950000
opls_146-147    H    0.51835986    0.04125990    0.02624086    0.10920000
opls_146-148    H    0.43547011    0.92586010    0.27068979    0.25110000
opls_146-149    H    0.36921001    0.87012985    0.41723073    0.12240000
opls_146-150    H    0.24930989    0.54776997    0.89957998    0.12350000
opls_146-151    H    0.16715987    0.41622994    0.91140099    0.12350000
opls_146-152    H    0.22597004    0.40564007    0.94719922    0.12240000
opls_146-153    H    0.30816008    0.53716993    0.93479060    0.12300000
opls_146-154    H    0.10833997    0.57796984    0.14097977    0.12350000
opls_146-155    H    0.88971998    0.34316005    0.49275070    0.12300000
opls_146-156    H    0.95227002    0.39818014    0.67485966    0.24950000
opls_146-157    H    0.00051993    0.43684002    0.93922095    0.10920000
opls_146-158    H    0.05492009    0.42330013    0.07042930    0.11950000
opls_146-159    H    0.95873984    0.47709984    0.02624086    0.10920000
opls_146-160    H    0.07414010    0.50961013    0.27068979    0.25120000
opls_146-161    H    0.12987012    0.49908003    0.41723073    0.12230000
opls_146-162    H    0.54776994    0.29845995    0.10042002    0.12350000
opls_146-163    H    0.41623000    0.24907001    0.08859901    0.12350000
opls_146-164    H    0.40563995    0.17966986    0.05280078    0.12240000
opls_146-165    H    0.53716988    0.22900988    0.06520940    0.12300000
opls_146-166    H    0.57797006    0.46963006    0.85902023    0.12350000
opls_146-167    H    0.34316001    0.45343992    0.50724930    0.12300000
opls_146-168    H    0.39818009    0.44591006    0.32514034    0.24950000
opls_146-169    H    0.43683997    0.43631995    0.06077905    0.10920000
opls_146-170    H    0.42329998    0.36837987    0.92957070    0.11950000
opls_146-171    H    0.47710012    0.51836005    0.97375914    0.10920000
opls_146-172    H    0.50961006    0.43546992    0.72931021    0.25120000
opls_146-173    H    0.49907986    0.36920988    0.58276927    0.12240000
opls_146-174    H    0.70153995    0.24931002    0.10042002    0.12350000
opls_146-175    H    0.75092987    0.16715993    0.08859901    0.12350000
opls_146-176    H    0.82032994    0.22596990    0.05280078    0.12240000
opls_146-177    H    0.77098994    0.30816004    0.06520940    0.12300000
opls_146-178    H    0.53037007    0.10834010    0.85902023    0.12350000
opls_146-179    H    0.54655997    0.88972013    0.50724930    0.12300000
opls_146-180    H    0.55408993    0.95227008    0.32514034    0.24940000
opls_146-181    H    0.56367996    0.00052007    0.06077905    0.10920000
opls_146-182    H    0.63161995    0.05491995    0.92957070    0.11950000
opls_146-183    H    0.48164014    0.95874010    0.97375914    0.10920000
opls_146-184    H    0.56452989    0.07413990    0.72931021    0.25120000
opls_146-185    H    0.63078999    0.12987015    0.58276927    0.12240000
opls_146-186    H    0.75069011    0.45223003    0.10042002    0.12350000
opls_146-187    H    0.83284013    0.58377006    0.08859901    0.12350000
opls_146-188    H    0.77402996    0.59435993    0.05280078    0.12240000
opls_146-189    H    0.69183992    0.46283007    0.06520940    0.12300000
opls_146-190    H    0.89165988    0.42202985    0.85902023    0.12350000
opls_146-191    H    0.11028002    0.65683995    0.50724930    0.12300000
opls_146-192    H    0.04772998    0.60181986    0.32514034    0.24950000
opls_146-193    H    0.99948007    0.56315998    0.06077905    0.10920000
opls_146-194    H    0.94507991    0.57669987    0.92957070    0.11950000
opls_146-195    H    0.04126000    0.52289985    0.97375914    0.10920000
opls_146-196    H    0.92585990    0.49038987    0.72931021    0.25120000
opls_146-197    H    0.87012988    0.50091997    0.58276927    0.12240000
opls_473-198    O    0.54561004    0.67377013    0.85166996    -0.27550000
opls_466-199    O    0.47623001    0.64911999    0.87688098    -0.48110000
opls_473-200    O    0.50142987    0.84889988    0.94676911    -0.27550000
opls_466-201    O    0.57047000    0.87272987    0.97571988    -0.47600000
opls_473-202    O    0.32622998    0.87184009    0.85166996    -0.27550000
opls_466-203    O    0.35088008    0.82711010    0.87688098    -0.48100000
opls_473-204    O    0.15109997    0.65252999    0.94676911    -0.27560000
opls_466-205    O    0.12726994    0.69773999    0.97571988    -0.47600000
opls_473-206    O    0.12816013    0.45439009    0.85166996    -0.27550000
opls_466-207    O    0.17288990    0.52376991    0.87688098    -0.48100000
opls_473-208    O    0.34747016    0.49857013    0.94676911    -0.27550000
opls_466-209    O    0.30226006    0.42953014    0.97571988    -0.47600000
opls_473-210    O    0.45438996    0.32622987    0.14833004    -0.27560000
opls_466-211    O    0.52376999    0.35088001    0.12311902    -0.48100000
opls_473-212    O    0.49857013    0.15110012    0.05323089    -0.27550000
opls_466-213    O    0.42953000    0.12727013    0.02428012    -0.47600000
opls_473-214    O    0.67377002    0.12815991    0.14833004    -0.27560000
opls_466-215    O    0.64911992    0.17288990    0.12311902    -0.48100000
opls_473-216    O    0.84890003    0.34747001    0.05323089    -0.27550000
opls_466-217    O    0.87273006    0.30226001    0.02428012    -0.47600000
opls_473-218    O    0.87183987    0.54560991    0.14833004    -0.27560000
opls_466-219    O    0.82711010    0.47623009    0.12311902    -0.48100000
opls_473-220    O    0.65252984    0.50142987    0.05323089    -0.27550000
opls_466-221    O    0.69773994    0.57046986    0.02428012    -0.47600000
