#======================================================================
# Crystal Data Generated By AuToFF
#----------------------------------------------------------------------

data_AuToFF_phase_1

_cell_length_a                         23.3293
_cell_length_b                         34.9571
_cell_length_c                         6.7638
_cell_angle_alpha                      90.00
_cell_angle_beta                       90.00
_cell_angle_gamma                      90.00
_symmetry_space_group_name_H-M_alt     'P 1'
_symmetry_space_group_IT_number        1

loop_
_space_group_symop_operation_xyz
   'x, y, z'

loop_
   _atom_site_label
   _atom_site_type_symbol
   _atom_site_fract_x
   _atom_site_fract_y
   _atom_site_fract_z
   _atom_site_charge
opls_238-0    N    0.22686021    0.68499990    0.50000000    -0.31400000
opls_238-1    N    0.72686021    0.18498989    0.50000000    -0.31400000
opls_238-2    N    0.77314021    0.31501011    0.50000000    -0.31400000
opls_238-3    N    0.27313979    0.81501011    0.50000000    -0.31400000
opls_238-4    N    0.77314021    0.68499990    0.50000000    -0.31400000
opls_238-5    N    0.27313979    0.18498989    0.50000000    -0.31400000
opls_238-6    N    0.22686021    0.31501011    0.50000000    -0.31400000
opls_238-7    N    0.72686021    0.81501011    0.50000000    -0.31400000
opls_542-8    N    0.40974011    0.50000000    0.50000000    -0.43290000
opls_542-9    N    0.90974011    0.00000000    0.50000000    -0.32760000
opls_542-10    N    0.59025989    0.50000000    0.50000000    -0.43300000
opls_542-11    N    0.09025989    0.00000000    0.50000000    -0.32760000
opls_542-12    N    0.00000000    0.93885992    0.50000000    -0.39310000
opls_542-13    N    0.50000000    0.43885992    0.50000000    -0.43270000
opls_542-14    N    0.00000000    0.06114008    0.50000000    -0.31420000
opls_542-15    N    0.50000000    0.56114008    0.50000000    -0.43270000
opls_141-16    C    0.24065017    0.72246010    0.50000000    0.03510000
opls_141-17    C    0.74065017    0.22246010    0.50000000    0.03510000
opls_141-18    C    0.75934983    0.27753990    0.50000000    0.03500000
opls_141-19    C    0.25934983    0.77753990    0.50000000    0.03500000
opls_141-20    C    0.75934983    0.72246010    0.50000000    0.03510000
opls_141-21    C    0.25934983    0.22246010    0.50000000    0.03510000
opls_141-22    C    0.24065017    0.27753990    0.50000000    0.03500000
opls_141-23    C    0.74065017    0.77753990    0.50000000    0.03500000
opls_280-24    C    0.20890983    0.75613995    0.50000000    0.14240000
opls_280-25    C    0.70890983    0.25613995    0.50000000    0.14240000
opls_280-26    C    0.79109017    0.24387006    0.50000000    0.14240000
opls_280-27    C    0.29109017    0.74387006    0.50000000    0.14240000
opls_280-28    C    0.79109017    0.75613995    0.50000000    0.14240000
opls_280-29    C    0.29109017    0.25613995    0.50000000    0.14240000
opls_280-30    C    0.20890983    0.24387006    0.50000000    0.14240000
opls_280-31    C    0.70890983    0.74387006    0.50000000    0.14240000
opls_507-32    C    0.95192998    0.91733010    0.50000000    0.16540000
opls_543-33    C    0.45192998    0.41733010    0.50000000    0.18250000
opls_543-34    C    0.04807002    0.08266990    0.50000000    0.16120000
opls_543-35    C    0.54807002    0.58266990    0.50000000    0.18250000
opls_507-36    C    0.04807002    0.91733010    0.50000000    0.16540000
opls_543-37    C    0.54807002    0.41733010    0.50000000    0.18250000
opls_543-38    C    0.95192998    0.08266990    0.50000000    0.16120000
opls_543-39    C    0.45192998    0.58266990    0.50000000    0.18250000
opls_716-40    C    0.97045989    0.87936013    0.50000000    -0.21920000
opls_716-41    C    0.47045989    0.37936013    0.50000000    -0.21920000
opls_716-42    C    0.02954011    0.12063987    0.50000000    -0.21920000
opls_716-43    C    0.52952982    0.62063987    0.50000000    -0.21920000
opls_716-44    C    0.02954011    0.87936013    0.50000000    -0.21920000
opls_716-45    C    0.52952982    0.37936013    0.50000000    -0.21920000
opls_716-46    C    0.97045989    0.12063987    0.50000000    -0.21920000
opls_716-47    C    0.47045989    0.62063987    0.50000000    -0.21920000
opls_543-48    C    0.37656981    0.46814009    0.50000000    0.18220000
opls_507-49    C    0.87656981    0.96814009    0.50000000    0.16480000
opls_543-50    C    0.62343019    0.53185991    0.50000000    0.18220000
opls_507-51    C    0.12343019    0.03185991    0.50000000    0.16480000
opls_543-52    C    0.62343019    0.46814009    0.50000000    0.18220000
opls_507-53    C    0.12343019    0.96814009    0.50000000    0.16480000
opls_543-54    C    0.37656981    0.53185991    0.50000000    0.18220000
opls_507-55    C    0.87656981    0.03185991    0.50000000    0.16480000
opls_716-56    C    0.31959982    0.48032989    0.50000000    -0.21910000
opls_716-57    C    0.81959982    0.98032989    0.50000000    -0.21910000
opls_716-58    C    0.68038990    0.51967011    0.50000000    -0.21920000
opls_716-59    C    0.18040018    0.01967011    0.50000000    -0.21920000
opls_716-60    C    0.68038990    0.48032989    0.50000000    -0.21920000
opls_716-61    C    0.18040018    0.98032989    0.50000000    -0.21920000
opls_716-62    C    0.31959982    0.51967011    0.50000000    -0.21910000
opls_716-63    C    0.81959982    0.01967011    0.50000000    -0.21910000
opls_700-64    C    0.89408984    0.92939002    0.50000000    -0.07670000
opls_700-65    C    0.39408984    0.42939002    0.50000000    -0.07670000
opls_700-66    C    0.10591016    0.07060998    0.50000000    -0.07670000
opls_700-67    C    0.60591016    0.57060998    0.50000000    -0.07640000
opls_700-68    C    0.10591016    0.92939002    0.50000000    -0.07670000
opls_700-69    C    0.60591016    0.42939002    0.50000000    -0.07670000
opls_700-70    C    0.89408984    0.07060998    0.50000000    -0.07670000
opls_700-71    C    0.39408984    0.57060998    0.50000000    -0.07640000
opls_700-72    C    0.85128015    0.90080012    0.50000000    0.08120000
opls_700-73    C    0.35128015    0.40080012    0.50000000    0.08240000
opls_700-74    C    0.14871985    0.09919988    0.50000000    0.08120000
opls_700-75    C    0.64870999    0.59920989    0.50000000    0.08120000
opls_700-76    C    0.14871985    0.90080012    0.50000000    0.08240000
opls_700-77    C    0.64870999    0.40080012    0.50000000    0.08240000
opls_700-78    C    0.85128015    0.09919988    0.50000000    0.08120000
opls_700-79    C    0.35128015    0.59920989    0.50000000    0.08120000
opls_145-80    C    0.32978015    0.38628004    0.68029067    -0.18830000
opls_145-81    C    0.82976986    0.88628004    0.68029067    -0.18830000
opls_145-82    C    0.67021985    0.61372997    0.68029067    -0.18830000
opls_145-83    C    0.17021985    0.11372997    0.68029067    -0.18820000
opls_145-84    C    0.67021985    0.38628004    0.31970933    -0.18830000
opls_145-85    C    0.17021985    0.88628004    0.31970933    -0.18830000
opls_145-86    C    0.32978015    0.61372997    0.31970933    -0.18830000
opls_145-87    C    0.82976986    0.11372997    0.31970933    -0.18830000
opls_145-88    C    0.67021985    0.61372997    0.31970933    -0.18830000
opls_145-89    C    0.17021985    0.11372997    0.31970933    -0.18830000
opls_145-90    C    0.32978015    0.38628004    0.31970933    -0.18830000
opls_145-91    C    0.82976986    0.88628004    0.31970933    -0.18820000
opls_145-92    C    0.32978015    0.61372997    0.68029067    -0.18830000
opls_145-93    C    0.82976986    0.11372997    0.68029067    -0.18830000
opls_145-94    C    0.67021985    0.38628004    0.68029067    -0.18820000
opls_145-95    C    0.17021985    0.88628004    0.68029067    -0.18830000
opls_145-96    C    0.78763015    0.85745013    0.67999054    -0.21940000
opls_145-97    C    0.28763015    0.35745013    0.67999054    -0.21940000
opls_145-98    C    0.21236985    0.14254987    0.67999054    -0.21940000
opls_145-99    C    0.71236985    0.64254987    0.67999054    -0.21940000
opls_145-100    C    0.21236985    0.85745013    0.32000946    -0.21940000
opls_145-101    C    0.71236985    0.35745013    0.32000946    -0.21940000
opls_145-102    C    0.78763015    0.14254987    0.32000946    -0.21940000
opls_145-103    C    0.28763015    0.64254987    0.32000946    -0.21940000
opls_145-104    C    0.21236985    0.14254987    0.32000946    -0.21940000
opls_145-105    C    0.71236985    0.64254987    0.32000946    -0.21940000
opls_145-106    C    0.78763015    0.85745013    0.32000946    -0.21940000
opls_145-107    C    0.28763015    0.35745013    0.32000946    -0.21940000
opls_145-108    C    0.78763015    0.14254987    0.67999054    -0.21940000
opls_145-109    C    0.28763015    0.64254987    0.67999054    -0.21940000
opls_145-110    C    0.21236985    0.85745013    0.67999054    -0.21940000
opls_145-111    C    0.71236985    0.35745013    0.67999054    -0.21930000
opls_916-112    C    0.76672982    0.84283994    0.50000000    0.18550000
opls_916-113    C    0.26672982    0.34283994    0.50000000    0.18550000
opls_916-114    C    0.23327018    0.15716006    0.50000000    0.18560000
opls_916-115    C    0.73325989    0.65716006    0.50000000    0.18560000
opls_916-116    C    0.23327018    0.84283994    0.50000000    0.18550000
opls_916-117    C    0.73325989    0.34283994    0.50000000    0.18550000
opls_916-118    C    0.76672982    0.15716006    0.50000000    0.18550000
opls_916-119    C    0.26672982    0.65716006    0.50000000    0.18560000
opls_910-120    H    0.18673985    0.67771011    0.50000000    0.26230000
opls_910-121    H    0.68673985    0.17771011    0.50000000    0.26230000
opls_910-122    H    0.81326015    0.32229990    0.50000000    0.26230000
opls_910-123    H    0.31326015    0.82229990    0.50000000    0.26230000
opls_910-124    H    0.81326015    0.67771011    0.50000000    0.26240000
opls_910-125    H    0.31326015    0.17771011    0.50000000    0.26230000
opls_910-126    H    0.18673985    0.32229990    0.50000000    0.26230000
opls_910-127    H    0.68673985    0.82229990    0.50000000    0.26230000
opls_547-128    H    0.94531983    0.85542994    0.50000000    0.21890000
opls_547-129    H    0.44531983    0.35542994    0.50000000    0.21890000
opls_547-130    H    0.05468017    0.14457006    0.50000000    0.21890000
opls_547-131    H    0.55468017    0.64457006    0.50000000    0.21900000
opls_547-132    H    0.05468017    0.85542994    0.50000000    0.21890000
opls_547-133    H    0.55468017    0.35542994    0.50000000    0.21890000
opls_547-134    H    0.94531983    0.14457006    0.50000000    0.21890000
opls_547-135    H    0.44531983    0.64457006    0.50000000    0.21890000
opls_547-136    H    0.28375991    0.46351013    0.50000000    0.21890000
opls_547-137    H    0.78375991    0.96351013    0.50000000    0.21890000
opls_547-138    H    0.71622981    0.53648987    0.50000000    0.21890000
opls_547-139    H    0.21622981    0.03648987    0.50000000    0.21890000
opls_547-140    H    0.71622981    0.46351013    0.50000000    0.21890000
opls_547-141    H    0.21622981    0.96351013    0.50000000    0.21890000
opls_547-142    H    0.28375991    0.53648987    0.50000000    0.21890000
opls_547-143    H    0.78375991    0.03648987    0.50000000    0.21890000
opls_146-144    H    0.84478017    0.89656007    0.81212041    0.21900000
opls_146-145    H    0.34478017    0.39656007    0.81212041    0.21890000
opls_146-146    H    0.15521983    0.10344994    0.81212041    0.21890000
opls_146-147    H    0.65521983    0.60344994    0.81212041    0.21890000
opls_146-148    H    0.15521983    0.89656007    0.18787959    0.21890000
opls_146-149    H    0.65521983    0.39656007    0.18787959    0.21890000
opls_146-150    H    0.84478017    0.10344994    0.18787959    0.21890000
opls_146-151    H    0.34478017    0.60344994    0.18787959    0.21890000
opls_146-152    H    0.15521983    0.10344994    0.18787959    0.21890000
opls_146-153    H    0.65521983    0.60344994    0.18787959    0.21890000
opls_146-154    H    0.84478017    0.89656007    0.18787959    0.21890000
opls_146-155    H    0.34478017    0.39656007    0.18787959    0.21890000
opls_146-156    H    0.84478017    0.10344994    0.81212041    0.21890000
opls_146-157    H    0.34478017    0.60344994    0.81212041    0.21890000
opls_146-158    H    0.15521983    0.89656007    0.81212041    0.21900000
opls_146-159    H    0.65521983    0.39656007    0.81212041    0.21890000
opls_146-160    H    0.77229021    0.84698988    0.81069961    0.21890000
opls_146-161    H    0.27229021    0.34697987    0.81069961    0.21890000
opls_146-162    H    0.22770979    0.15302013    0.81069961    0.21890000
opls_146-163    H    0.72770979    0.65302013    0.81069961    0.21890000
opls_146-164    H    0.22770979    0.84698988    0.18930039    0.21890000
opls_146-165    H    0.72770979    0.34697987    0.18930039    0.21890000
opls_146-166    H    0.77229021    0.15302013    0.18930039    0.21890000
opls_146-167    H    0.27229021    0.65302013    0.18930039    0.21890000
opls_146-168    H    0.22770979    0.15302013    0.18930039    0.21890000
opls_146-169    H    0.72770979    0.65302013    0.18930039    0.21890000
opls_146-170    H    0.77229021    0.84698988    0.18930039    0.21890000
opls_146-171    H    0.27229021    0.34697987    0.18930039    0.21890000
opls_146-172    H    0.77229021    0.15302013    0.81069961    0.21890000
opls_146-173    H    0.27229021    0.65302013    0.81069961    0.21890000
opls_146-174    H    0.22770979    0.84698988    0.81069961    0.21890000
opls_146-175    H    0.72770979    0.34697987    0.81069961    0.21890000
opls_545-176    H    0.00000000    0.03339007    0.50000000    0.26250000
opls_281-177    O    0.15657992    0.76396011    0.50000000    -0.44090000
opls_281-178    O    0.65657992    0.26396011    0.50000000    -0.44090000
opls_281-179    O    0.84342008    0.23604990    0.50000000    -0.44080000
opls_281-180    O    0.34342008    0.73604990    0.50000000    -0.44090000
opls_281-181    O    0.84342008    0.76396011    0.50000000    -0.44090000
opls_281-182    O    0.34342008    0.26396011    0.50000000    -0.44090000
opls_281-183    O    0.15657992    0.23604990    0.50000000    -0.44080000
opls_281-184    O    0.65657992    0.73604990    0.50000000    -0.44090000
Cu2+-185    Cu    0.50000000    0.50000000    0.50000000    0.57860000
