#======================================================================
# Crystal Data Generated By AuToFF
#----------------------------------------------------------------------

data_AuToFF_phase_1

_cell_length_a                         19.5689
_cell_length_b                         19.5689
_cell_length_c                         3.5153
_cell_angle_alpha                      90.00
_cell_angle_beta                       90.00
_cell_angle_gamma                      120.00
_symmetry_space_group_name_H-M_alt     'P 1'
_symmetry_space_group_IT_number        1

loop_
_space_group_symop_operation_xyz
   'x, y, z'

loop_
   _atom_site_label
   _atom_site_type_symbol
   _atom_site_fract_x
   _atom_site_fract_y
   _atom_site_fract_z
   _atom_site_charge
opls_142-0    C    0.53888014    0.36707035    0.00000000    0.02700000
opls_700-1    C    0.65184018    0.25501028    0.00000000    -0.19080000
opls_166-2    C    0.58874035    0.26997031    0.00000000    0.23870000
opls_142-3    C    0.63293008    0.17180991    0.00000000    0.02700000
opls_700-4    C    0.74498997    0.39681988    0.00000000    -0.19080000
opls_166-5    C    0.73002986    0.31877022    0.00000000    0.23870000
opls_142-6    C    0.82819008    0.46112033    0.00000000    0.02700000
opls_700-7    C    0.60317965    0.34815981    0.00000000    -0.19080000
opls_166-8    C    0.68123009    0.41126006    0.00000000    0.23870000
opls_142-9    C    0.36707004    0.53888026    0.00000000    0.02700000
opls_700-10    C    0.25501013    0.65184019    0.00000000    -0.19080000
opls_166-11    C    0.26997003    0.58873994    0.00000000    0.23870000
opls_142-12    C    0.17181008    0.63293024    0.00000000    0.02700000
opls_700-13    C    0.39681998    0.74499031    0.00000000    -0.19080000
opls_166-14    C    0.31877033    0.73003028    0.00000000    0.23870000
opls_142-15    C    0.46112017    0.82819009    0.00000000    0.02700000
opls_700-16    C    0.34815987    0.60318012    0.00000000    -0.19080000
opls_166-17    C    0.41125993    0.68123037    0.00000000    0.23870000
opls_141-18    C    0.00000032    0.59567031    0.00000000    0.29030000
opls_141-19    C    0.40433031    0.40433028    0.00000000    0.29030000
opls_141-20    C    0.59567017    0.00000000    0.00000000    0.29030000
opls_750-21    N    0.46489012    0.31363013    0.00000000    -0.15250000
opls_238-22    N    0.92746984    0.59802999    0.00000000    -0.17660000
opls_750-23    N    0.68637008    0.15126015    0.00000000    -0.15250000
opls_238-24    N    0.40196985    0.32943986    0.00000000    -0.17660000
opls_750-25    N    0.84874010    0.53511031    0.00000000    -0.15250000
opls_238-26    N    0.67056031    0.07253015    0.00000000    -0.17660000
opls_750-27    N    0.31363008    0.46489028    0.00000000    -0.15250000
opls_238-28    N    0.59803046    0.92747044    0.00000000    -0.17660000
opls_750-29    N    0.15126029    0.68637046    0.00000000    -0.15260000
opls_238-30    N    0.32943985    0.40197001    0.00000000    -0.17660000
opls_750-31    N    0.53511022    0.84874044    0.00000000    -0.15250000
opls_238-32    N    0.07252999    0.67056014    0.00000000    -0.17660000
opls_167-33    O    0.69468977    0.48709990    0.00000000    -0.38780000
opls_167-34    O    0.51289973    0.20758994    0.00000000    -0.38780000
opls_167-35    O    0.79240999    0.30531015    0.00000000    -0.38800000
opls_167-36    O    0.48710014    0.69469044    0.00000000    -0.38780000
opls_167-37    O    0.20758987    0.51290010    0.00000000    -0.38790000
opls_167-38    O    0.30530978    0.79241006    0.00000000    -0.38780000
opls_474-39    S    0.00000017    0.52206033    0.00000000    -0.17250000
opls_474-40    S    0.47794013    0.47794026    0.00000000    -0.17250000
opls_474-41    S    0.52206000    0.00000000    0.00000000    -0.17250000
opls_144-42    H    0.55346044    0.43123037    0.00000000    0.02880000
opls_168-43    H    0.65388975    0.49183993    0.79642989    0.31660000
opls_910-44    H    0.93990979    0.65994007    0.00000000    0.23750000
opls_144-45    H    0.56876996    0.12222992    0.00000000    0.02880000
opls_168-46    H    0.47536974    0.22191978    0.81826018    0.31670000
opls_910-47    H    0.34006023    0.27997021    0.00000000    0.23750000
opls_144-48    H    0.87777041    0.44654031    0.00000000    0.02880000
opls_168-49    H    0.77043007    0.24160980    0.95115068    0.31670000
opls_910-50    H    0.72003028    0.06009030    0.00000000    0.23750000
opls_144-51    H    0.43123040    0.55346028    0.00000000    0.02880000
opls_168-52    H    0.52882027    0.75839020    0.95115068    0.31670000
opls_910-53    H    0.65994027    0.93991029    0.00000000    0.23750000
opls_144-54    H    0.12223037    0.56877022    0.00000000    0.02880000
opls_168-55    H    0.16206004    0.50816007    0.79642989    0.31780000
opls_910-56    H    0.27996972    0.34005993    0.00000000    0.23750000
opls_144-57    H    0.44654004    0.87777008    0.00000000    0.02880000
opls_168-58    H    0.25344996    0.77808022    0.81826018    0.31670000
opls_910-59    H    0.06009031    0.72003038    0.00000000    0.23750000
