#======================================================================
# Crystal Data Generated By AuToFF
#----------------------------------------------------------------------

data_AuToFF_phase_1

_cell_length_a                         28.6367
_cell_length_b                         28.6367
_cell_length_c                         7.2478
_cell_angle_alpha                      90.00
_cell_angle_beta                       90.00
_cell_angle_gamma                      120.00
_symmetry_space_group_name_H-M_alt     'P 1'
_symmetry_space_group_IT_number        1

loop_
_space_group_symop_operation_xyz
   'x, y, z'

loop_
   _atom_site_label
   _atom_site_type_symbol
   _atom_site_fract_x
   _atom_site_fract_y
   _atom_site_fract_z
   _atom_site_charge
opls_280-0    C    0.96490001    0.02372006    0.27873976    0.31200000
opls_145-1    C    0.02398007    0.05965982    0.30146941    -0.11040000
opls_142-2    C    0.04932999    0.11342006    0.33334943    0.04800000
opls_141-3    C    0.05528002    0.20068984    0.23166064    0.31120000
opls_916-4    C    0.97337001    0.21295994    0.20613979    0.16930000
opls_145-5    C    0.93877023    0.16136017    0.14193962    -0.11620000
opls_145-6    C    0.88316002    0.14210985    0.12452054    -0.13220000
opls_700-7    C    0.86159003    0.17551011    0.17186043    0.07850000
opls_145-8    C    0.89678009    0.22768004    0.23679047    -0.16840000
opls_700-9    C    0.95220004    0.24666020    0.25456966    0.07930000
opls_148-10    C    0.98797011    0.30225995    0.33126052    -0.44580000
opls_280-11    C    0.70176009    0.30960992    0.27873976    0.31200000
opls_145-12    C    0.64269015    0.27367016    0.30146941    -0.11040000
opls_142-13    C    0.61733011    0.21990991    0.33334943    0.04770000
opls_141-14    C    0.61138008    0.13264014    0.23166064    0.31120000
opls_916-15    C    0.69329986    0.12037003    0.20613979    0.16930000
opls_145-16    C    0.72790000    0.17196980    0.14193962    -0.11310000
opls_145-17    C    0.78351020    0.19122012    0.12452054    -0.13230000
opls_700-18    C    0.80508000    0.15782995    0.17186043    0.07850000
opls_145-19    C    0.76989013    0.10564993    0.23679047    -0.16480000
opls_700-20    C    0.71446025    0.08667018    0.25456966    0.07930000
opls_148-21    C    0.67868998    0.03107002    0.33126052    -0.44370000
opls_280-22    C    0.97627995    0.94118010    0.27873976    0.31210000
opls_145-23    C    0.94033985    0.96431992    0.30146941    -0.11040000
opls_142-24    C    0.88658003    0.93590996    0.33334943    0.04800000
opls_141-25    C    0.79931001    0.85459016    0.23166064    0.31120000
opls_916-26    C    0.78703990    0.76040993    0.20613979    0.16930000
opls_145-27    C    0.83863980    0.77740986    0.14193962    -0.11620000
opls_145-28    C    0.85789013    0.74104994    0.12452054    -0.13230000
opls_700-29    C    0.82449004    0.68608002    0.17186043    0.07850000
opls_145-30    C    0.77231999    0.66909985    0.23679047    -0.16840000
opls_700-31    C    0.75333991    0.70554002    0.25456966    0.07930000
opls_148-32    C    0.69774010    0.68570986    0.33126052    -0.44580000
opls_280-33    C    0.69038992    0.39214987    0.27873976    0.31200000
opls_145-34    C    0.72633018    0.36902014    0.30146941    -0.11040000
opls_142-35    C    0.78008984    0.39742001    0.33334943    0.04770000
opls_141-36    C    0.86735986    0.47873981    0.23166064    0.31130000
opls_916-37    C    0.87963012    0.57293012    0.20613979    0.16930000
opls_145-38    C    0.82803002    0.55592979    0.14193962    -0.11310000
opls_145-39    C    0.80877989    0.59229011    0.12452054    -0.13230000
opls_700-40    C    0.84217006    0.64724995    0.17186043    0.07850000
opls_145-41    C    0.89434983    0.66423980    0.23679047    -0.16480000
opls_700-42    C    0.91332997    0.62778996    0.25456966    0.07930000
opls_148-43    C    0.96893013    0.64762011    0.33126052    -0.44370000
opls_280-44    C    0.05882004    0.03509984    0.27873976    0.31210000
opls_145-45    C    0.03567988    0.97601986    0.30146941    -0.11040000
opls_142-46    C    0.06408998    0.95066998    0.33334943    0.04800000
opls_141-47    C    0.14540997    0.94472000    0.23166064    0.31120000
opls_916-48    C    0.23959009    0.02663012    0.20613979    0.16930000
opls_145-49    C    0.22258997    0.06122997    0.14193962    -0.11630000
opls_145-50    C    0.25894999    0.11683980    0.12452054    -0.13230000
opls_700-51    C    0.31391993    0.13840987    0.17186043    0.07850000
opls_145-52    C    0.33089992    0.10322011    0.23679047    -0.16840000
opls_700-53    C    0.29446025    0.04780019    0.25456966    0.07930000
opls_148-54    C    0.31429014    0.01203019    0.33126052    -0.44580000
opls_280-55    C    0.60784978    0.29823981    0.27873976    0.31200000
opls_145-56    C    0.63098022    0.35731011    0.30146941    -0.11040000
opls_142-57    C    0.60258005    0.38267008    0.33334943    0.04770000
opls_141-58    C    0.52126006    0.38862005    0.23166064    0.31120000
opls_916-59    C    0.42707001    0.30669985    0.20613979    0.16930000
opls_145-60    C    0.44407013    0.27210000    0.14193962    -0.11310000
opls_145-61    C    0.40771011    0.21649017    0.12452054    -0.13230000
opls_700-62    C    0.35274994    0.19492010    0.17186043    0.07850000
opls_145-63    C    0.33575983    0.23010987    0.23679047    -0.16480000
opls_700-64    C    0.37220978    0.28553986    0.25456966    0.07930000
opls_148-65    C    0.35237989    0.32130987    0.33126052    -0.44370000
opls_280-66    C    0.03509999    0.97627994    0.77873976    0.31200000
opls_145-67    C    0.97601993    0.94034018    0.80146941    -0.11040000
opls_142-68    C    0.95067001    0.88657994    0.83334943    0.04800000
opls_141-69    C    0.94471998    0.79931016    0.73166064    0.31120000
opls_916-70    C    0.02662999    0.78704006    0.70613979    0.16930000
opls_145-71    C    0.06122977    0.83863983    0.64193962    -0.11630000
opls_145-72    C    0.11683998    0.85789015    0.62452054    -0.13230000
opls_700-73    C    0.13840997    0.82448989    0.67186043    0.07850000
opls_145-74    C    0.10321991    0.77231996    0.73679047    -0.16840000
opls_700-75    C    0.04779996    0.75333980    0.75456966    0.07930000
opls_148-76    C    0.01202989    0.69774005    0.83126052    -0.44580000
opls_280-77    C    0.29823991    0.69039008    0.77873976    0.31200000
opls_145-78    C    0.35730985    0.72632984    0.80146941    -0.11040000
opls_142-79    C    0.38266989    0.78009009    0.83334943    0.04770000
opls_141-80    C    0.38861992    0.86735986    0.73166064    0.31120000
opls_916-81    C    0.30670014    0.87962997    0.70613979    0.16930000
opls_145-82    C    0.27209980    0.82802980    0.64193962    -0.11310000
opls_145-83    C    0.21648980    0.80877988    0.62452054    -0.13220000
opls_700-84    C    0.19492000    0.84217005    0.67186043    0.07850000
opls_145-85    C    0.23010987    0.89435007    0.73679047    -0.16480000
opls_700-86    C    0.28553975    0.91332982    0.75456966    0.07930000
opls_148-87    C    0.32131002    0.96892998    0.83126052    -0.44370000
opls_280-88    C    0.02372005    0.05881990    0.77873976    0.31200000
opls_145-89    C    0.05966015    0.03568008    0.80146941    -0.11040000
opls_142-90    C    0.11341997    0.06409004    0.83334943    0.04800000
opls_141-91    C    0.20068999    0.14540984    0.73166064    0.31120000
opls_916-92    C    0.21296010    0.23959007    0.70613979    0.16930000
opls_145-93    C    0.16136020    0.22259014    0.64193962    -0.11630000
opls_145-94    C    0.14210987    0.25895006    0.62452054    -0.13230000
opls_700-95    C    0.17550996    0.31391998    0.67186043    0.07850000
opls_145-96    C    0.22768001    0.33090015    0.73679047    -0.16840000
opls_700-97    C    0.24666009    0.29445998    0.75456966    0.07930000
opls_148-98    C    0.30225990    0.31429014    0.83126052    -0.44580000
opls_280-99    C    0.30961008    0.60785013    0.77873976    0.31200000
opls_145-100    C    0.27366982    0.63097986    0.80146941    -0.11040000
opls_142-101    C    0.21991016    0.60257999    0.83334943    0.04770000
opls_141-102    C    0.13264014    0.52126019    0.73166064    0.31120000
opls_916-103    C    0.12036988    0.42706988    0.70613979    0.16930000
opls_145-104    C    0.17196978    0.44406980    0.64193962    -0.11310000
opls_145-105    C    0.19122011    0.40770989    0.62452054    -0.13230000
opls_700-106    C    0.15782994    0.35275005    0.67186043    0.07850000
opls_145-107    C    0.10564996    0.33575980    0.73679047    -0.16480000
opls_700-108    C    0.08667003    0.37221004    0.75456966    0.07930000
opls_148-109    C    0.03106987    0.35237989    0.83126052    -0.44370000
opls_280-110    C    0.94117996    0.96490016    0.77873976    0.31200000
opls_145-111    C    0.96432012    0.02398014    0.80146941    -0.11040000
opls_142-112    C    0.93591002    0.04933002    0.83334943    0.04800000
opls_141-113    C    0.85459003    0.05528000    0.73166064    0.31120000
opls_916-114    C    0.76040991    0.97336988    0.70613979    0.16930000
opls_145-115    C    0.77741003    0.93877003    0.64193962    -0.11630000
opls_145-116    C    0.74104981    0.88315979    0.62452054    -0.13230000
opls_700-117    C    0.68608007    0.86159013    0.67186043    0.07850000
opls_145-118    C    0.66910008    0.89677989    0.73679047    -0.16840000
opls_700-119    C    0.70553975    0.95219981    0.75456966    0.07930000
opls_148-120    C    0.68570986    0.98796981    0.83126052    -0.44570000
opls_280-121    C    0.39215001    0.70175979    0.77873976    0.31200000
opls_145-122    C    0.36901978    0.64268989    0.80146941    -0.11040000
opls_142-123    C    0.39741995    0.61732992    0.83334943    0.04770000
opls_141-124    C    0.47873994    0.61137995    0.73166064    0.31120000
opls_916-125    C    0.57292999    0.69330015    0.70613979    0.16930000
opls_145-126    C    0.55592987    0.72790000    0.64193962    -0.11310000
opls_145-127    C    0.59228989    0.78350983    0.62452054    -0.13230000
opls_700-128    C    0.64725006    0.80507990    0.67186043    0.07850000
opls_145-129    C    0.66424017    0.76989013    0.73679047    -0.16480000
opls_700-130    C    0.62779022    0.71446014    0.75456966    0.07930000
opls_148-131    C    0.64762011    0.67869013    0.83126052    -0.44360000
opls_238-132    N    0.02639974    0.14855982    0.32285935    -0.37820000
opls_238-133    N    0.03041011    0.23334009    0.20834046    -0.40280000
opls_238-134    N    0.64027008    0.18477983    0.32285935    -0.37820000
opls_238-135    N    0.63624999    0.09998988    0.20834046    -0.40280000
opls_238-136    N    0.85143998    0.87784006    0.32285935    -0.37830000
opls_238-137    N    0.76666009    0.79706985    0.20834046    -0.40270000
opls_238-138    N    0.81522012    0.45548992    0.32285935    -0.37820000
opls_238-139    N    0.90001013    0.53626012    0.20834046    -0.40280000
opls_238-140    N    0.12215993    0.97360012    0.32285935    -0.37830000
opls_238-141    N    0.20293015    0.96959005    0.20834046    -0.40280000
opls_238-142    N    0.54450995    0.35972986    0.32285935    -0.37830000
opls_238-143    N    0.46373988    0.36375000    0.20834046    -0.40280000
opls_238-144    N    0.97360026    0.85144018    0.82285935    -0.37830000
opls_238-145    N    0.96958989    0.76665991    0.70834046    -0.40280000
opls_238-146    N    0.35972992    0.81522017    0.82285935    -0.37820000
opls_238-147    N    0.36375001    0.90001012    0.70834046    -0.40270000
opls_238-148    N    0.14856002    0.12215994    0.82285935    -0.37830000
opls_238-149    N    0.23333991    0.20293015    0.70834046    -0.40280000
opls_238-150    N    0.18477988    0.54451008    0.82285935    -0.37810000
opls_238-151    N    0.09998987    0.46373988    0.70834046    -0.40280000
opls_238-152    N    0.87784007    0.02639988    0.82285935    -0.37830000
opls_238-153    N    0.79706985    0.03040995    0.70834046    -0.40260000
opls_238-154    N    0.45549005    0.64027014    0.82285935    -0.37830000
opls_238-155    N    0.53626012    0.63625000    0.70834046    -0.40280000
opls_474-156    S    0.11184005    0.22453005    0.18712023    -0.20570000
opls_474-157    S    0.55482998    0.10881000    0.18712023    -0.20580000
opls_474-158    S    0.77547021    0.88731018    0.18712023    -0.20570000
opls_474-159    S    0.89118989    0.44601980    0.18712023    -0.20580000
opls_474-160    S    0.11268995    0.88816017    0.18712023    -0.20560000
opls_474-161    S    0.55397993    0.44516980    0.18712023    -0.20580000
opls_474-162    S    0.88815995    0.77546995    0.68712023    -0.20570000
opls_474-163    S    0.44517002    0.89119000    0.68712023    -0.20580000
opls_474-164    S    0.22452979    0.11268982    0.68712023    -0.20560000
opls_474-165    S    0.10880991    0.55397980    0.68712023    -0.20580000
opls_474-166    S    0.88731005    0.11183983    0.68712023    -0.20570000
opls_474-167    S    0.44601987    0.55482980    0.68712023    -0.20580000
opls_281-168    O    0.93577015    0.04114014    0.22740970    -0.38810000
opls_281-169    O    0.73088995    0.29218983    0.22740970    -0.38800000
opls_281-170    O    0.95885993    0.89462990    0.22740970    -0.38800000
opls_281-171    O    0.70780995    0.43870007    0.22740970    -0.38810000
opls_281-172    O    0.10536993    0.06422996    0.22740970    -0.38810000
opls_281-173    O    0.56130010    0.26911010    0.22740970    -0.38810000
opls_281-174    O    0.06422985    0.95885986    0.72740970    -0.38810000
opls_281-175    O    0.26911005    0.70781017    0.72740970    -0.38810000
opls_281-176    O    0.04114007    0.10537010    0.72740970    -0.38810000
opls_281-177    O    0.29219005    0.56129993    0.72740970    -0.38810000
opls_281-178    O    0.89463007    0.93577004    0.72740970    -0.38810000
opls_281-179    O    0.43869990    0.73088990    0.72740970    -0.38810000
opls_144-180    H    0.09218010    0.13269014    0.35745054    0.10040000
opls_910-181    H    0.98836000    0.13641996    0.37954966    0.26940000
opls_910-182    H    0.05565984    0.27342984    0.17594029    0.26820000
opls_146-183    H    0.95906984    0.13486997    0.11934932    0.03810000
opls_146-184    H    0.85753997    0.10116004    0.07578989    0.11550000
opls_146-185    H    0.88059007    0.25294001    0.28013052    0.11680000
opls_702-186    H    0.96405013    0.31743004    0.40387014    0.17170000
opls_702-187    H    0.01137004    0.33070015    0.21989983    0.13600000
opls_702-188    H    0.01645019    0.30042004    0.42999945    0.12930000
opls_144-189    H    0.57448978    0.20063984    0.35745054    0.10040000
opls_910-190    H    0.67830988    0.19691001    0.37954966    0.26930000
opls_910-191    H    0.61101004    0.05990014    0.17594029    0.26820000
opls_146-192    H    0.70758991    0.19846001    0.11934932    0.03810000
opls_146-193    H    0.80912991    0.23216994    0.07578989    0.11550000
opls_146-194    H    0.78607981    0.08038997    0.28013052    0.11680000
opls_702-195    H    0.70261012    0.01591001    0.40387014    0.17160000
opls_702-196    H    0.65529983    0.00262983    0.21989983    0.13600000
opls_702-197    H    0.65020990    0.03290993    0.42999945    0.12930000
opls_144-198    H    0.86730996    0.95949010    0.35745054    0.10040000
opls_910-199    H    0.86358022    0.85194017    0.37954966    0.26930000
opls_910-200    H    0.72656985    0.78223000    0.17594029    0.26820000
opls_146-201    H    0.86512984    0.82419997    0.11934932    0.03810000
opls_146-202    H    0.89884013    0.75638011    0.07578989    0.11560000
opls_146-203    H    0.74705999    0.62765004    0.28013052    0.11680000
opls_702-204    H    0.68257003    0.64662012    0.40387014    0.17180000
opls_702-205    H    0.66929991    0.68066996    0.21989983    0.13610000
opls_702-206    H    0.69957979    0.71602989    0.42999945    0.12930000
opls_144-207    H    0.79936007    0.37384995    0.35745054    0.10040000
opls_910-208    H    0.80308981    0.48139988    0.37954966    0.26930000
opls_910-209    H    0.94010017    0.55111006    0.17594029    0.26830000
opls_146-210    H    0.80154004    0.50913000    0.11934932    0.03810000
opls_146-211    H    0.76782990    0.57695994    0.07578989    0.11550000
opls_146-212    H    0.91961003    0.70569002    0.28013052    0.11690000
opls_702-213    H    0.98409012    0.68670018    0.40387014    0.17160000
opls_702-214    H    0.99737011    0.65267009    0.21989983    0.13600000
opls_702-215    H    0.96709009    0.61730008    0.42999945    0.12930000
opls_144-216    H    0.04051015    0.90782017    0.35745054    0.10040000
opls_910-217    H    0.14805979    0.01163987    0.37954966    0.26930000
opls_910-218    H    0.21776996    0.94434017    0.17594029    0.26820000
opls_146-219    H    0.17579997    0.04093006    0.11934932    0.03810000
opls_146-220    H    0.24361990    0.14245985    0.07578989    0.11550000
opls_146-221    H    0.37234994    0.11940995    0.28013052    0.11680000
opls_702-222    H    0.35337984    0.03594984    0.40387014    0.17170000
opls_702-223    H    0.31933005    0.98862989    0.21989983    0.13600000
opls_702-224    H    0.28397002    0.98355007    0.42999945    0.12930000
opls_144-225    H    0.62614995    0.42550981    0.35745054    0.10050000
opls_910-226    H    0.51859996    0.32169011    0.37954966    0.26930000
opls_910-227    H    0.44888979    0.38898981    0.17594029    0.26820000
opls_146-228    H    0.49087006    0.29240999    0.11934932    0.03810000
opls_146-229    H    0.42304020    0.19087012    0.07578989    0.11550000
opls_146-230    H    0.29431016    0.21392002    0.28013052    0.11680000
opls_702-231    H    0.31329977    0.29738981    0.40387014    0.17160000
opls_702-232    H    0.34733005    0.34470008    0.21989983    0.13600000
opls_702-233    H    0.38270001    0.34978998    0.42999945    0.12930000
opls_144-234    H    0.90781990    0.86730986    0.85745054    0.10040000
opls_910-235    H    0.01164000    0.86358004    0.87954966    0.26930000
opls_910-236    H    0.94434016    0.72657016    0.67594029    0.26820000
opls_146-237    H    0.04093016    0.86513003    0.61934932    0.03810000
opls_146-238    H    0.14246003    0.89883996    0.57578989    0.11560000
opls_146-239    H    0.11940993    0.74705999    0.78013052    0.11680000
opls_702-240    H    0.03594987    0.68256996    0.90387014    0.17170000
opls_702-241    H    0.98862996    0.66929985    0.71989983    0.13600000
opls_702-242    H    0.98354981    0.69957996    0.92999945    0.12930000
opls_144-243    H    0.42551022    0.79936016    0.85745054    0.10040000
opls_910-244    H    0.32169012    0.80308999    0.87954966    0.26930000
opls_910-245    H    0.38898996    0.94009986    0.67594029    0.26820000
opls_146-246    H    0.29241009    0.80153999    0.61934932    0.03820000
opls_146-247    H    0.19087009    0.76783006    0.57578989    0.11550000
opls_146-248    H    0.21392019    0.91961003    0.78013052    0.11680000
opls_702-249    H    0.29738988    0.98408999    0.90387014    0.17160000
opls_702-250    H    0.34470017    0.99737017    0.71989983    0.13600000
opls_702-251    H    0.34979010    0.96709007    0.92999945    0.12930000
opls_144-252    H    0.13269004    0.04050990    0.85745054    0.10040000
opls_910-253    H    0.13641978    0.14805983    0.87954966    0.26930000
opls_910-254    H    0.27343015    0.21777000    0.67594029    0.26820000
opls_146-255    H    0.13487016    0.17580003    0.61934932    0.03810000
opls_146-256    H    0.10115987    0.24361989    0.57578989    0.11550000
opls_146-257    H    0.25294001    0.37234996    0.78013052    0.11680000
opls_702-258    H    0.31742997    0.35337988    0.90387014    0.17170000
opls_702-259    H    0.33070009    0.31933004    0.71989983    0.13610000
opls_702-260    H    0.30042021    0.28397011    0.92999945    0.12930000
opls_144-261    H    0.20063993    0.62615005    0.85745054    0.10040000
opls_910-262    H    0.19691019    0.51860012    0.87954966    0.26930000
opls_910-263    H    0.05989983    0.44888994    0.67594029    0.26820000
opls_146-264    H    0.19845996    0.49087000    0.61934932    0.03810000
opls_146-265    H    0.23217010    0.42304006    0.57578989    0.11550000
opls_146-266    H    0.08038997    0.29430998    0.78013052    0.11680000
opls_702-267    H    0.01590988    0.31329982    0.90387014    0.17170000
opls_702-268    H    0.00262989    0.34732991    0.71989983    0.13600000
opls_702-269    H    0.03290991    0.38269992    0.92999945    0.12930000
opls_144-270    H    0.95948985    0.09217983    0.85745054    0.10040000
opls_910-271    H    0.85194021    0.98836013    0.87954966    0.26930000
opls_910-272    H    0.78223004    0.05565983    0.67594029    0.26820000
opls_146-273    H    0.82420003    0.95906994    0.61934932    0.03820000
opls_146-274    H    0.75638010    0.85754015    0.57578989    0.11550000
opls_146-275    H    0.62765006    0.88059005    0.78013052    0.11680000
opls_702-276    H    0.64662016    0.96405016    0.90387014    0.17170000
opls_702-277    H    0.68066995    0.01137011    0.71989983    0.13600000
opls_702-278    H    0.71602998    0.01644993    0.92999945    0.12930000
opls_144-279    H    0.37385005    0.57449019    0.85745054    0.10040000
opls_910-280    H    0.48140004    0.67830989    0.87954966    0.26940000
opls_910-281    H    0.55111021    0.61101019    0.67594029    0.26820000
opls_146-282    H    0.50912994    0.70759001    0.61934932    0.03810000
opls_146-283    H    0.57695980    0.80912988    0.57578989    0.11550000
opls_146-284    H    0.70568984    0.78607998    0.78013052    0.11680000
opls_702-285    H    0.68670023    0.70261019    0.90387014    0.17160000
opls_702-286    H    0.65266995    0.65529992    0.71989983    0.13600000
opls_702-287    H    0.61729999    0.65021002    0.92999945    0.12930000
