#======================================================================
# Crystal Data Generated By AuToFF
#----------------------------------------------------------------------

data_AuToFF_phase_1

_cell_length_a                         26.0324
_cell_length_b                         26.0324
_cell_length_c                         3.6329
_cell_angle_alpha                      90.00
_cell_angle_beta                       90.00
_cell_angle_gamma                      120.00
_symmetry_space_group_name_H-M_alt     'P 1'
_symmetry_space_group_IT_number        1

loop_
_space_group_symop_operation_xyz
   'x, y, z'

loop_
   _atom_site_label
   _atom_site_type_symbol
   _atom_site_fract_x
   _atom_site_fract_y
   _atom_site_fract_z
   _atom_site_charge
opls_145-0    C    0.26455990    0.82034995    0.34858102    -0.16610000
opls_145-1    C    0.17964983    0.44421000    0.34858102    -0.16610000
opls_145-2    C    0.55578989    0.73544005    0.34858102    -0.16610000
opls_145-3    C    0.29494011    0.78950992    0.33548130    -0.11580000
opls_145-4    C    0.21048997    0.50543010    0.33548130    -0.11580000
opls_145-5    C    0.49456991    0.70505999    0.33548130    -0.11580000
opls_700-6    C    0.26885979    0.73076978    0.46046960    0.06710000
opls_700-7    C    0.26923019    0.53809007    0.46046960    0.06710000
opls_700-8    C    0.46191002    0.73114015    0.46046960    0.06710000
opls_145-9    C    0.21047002    0.70421012    0.59276886    -0.11620000
opls_145-10    C    0.29578992    0.50626000    0.59276886    -0.11620000
opls_145-11    C    0.49374006    0.78952988    0.59276886    -0.11620000
opls_145-12    C    0.17950008    0.73448994    0.60273886    -0.16390000
opls_145-13    C    0.26550996    0.44501018    0.60273886    -0.16390000
opls_145-14    C    0.55498996    0.82049988    0.60273886    -0.16390000
opls_145-15    C    0.20648002    0.79378010    0.48562030    0.20210000
opls_145-16    C    0.20622025    0.41270018    0.48562030    0.20210000
opls_145-17    C    0.58729995    0.79352017    0.48562030    0.20210000
opls_700-18    C    0.30196992    0.69773987    0.45481021    0.07150000
opls_700-19    C    0.30225990    0.60423017    0.45481021    0.07150000
opls_700-20    C    0.39576979    0.69802996    0.45481021    0.07150000
opls_145-21    C    0.27181018    0.63577015    0.45447989    -0.16490000
opls_145-22    C    0.36423003    0.63603984    0.45447989    -0.16490000
opls_145-23    C    0.36396018    0.72819002    0.45447989    -0.16490000
opls_145-24    C    0.09128022    0.22600015    0.50235074    -0.11420000
opls_145-25    C    0.77400010    0.86528021    0.50235074    -0.11420000
opls_145-26    C    0.13471990    0.90872009    0.50235074    -0.11420000
opls_145-27    C    0.05550979    0.16505993    0.49663079    -0.11590000
opls_145-28    C    0.83494021    0.89045018    0.49663079    -0.11590000
opls_145-29    C    0.10954999    0.94448988    0.49663079    -0.11580000
opls_700-30    C    0.07555019    0.12784013    0.63496931    0.06710000
opls_700-31    C    0.87216026    0.94771015    0.63496931    0.06710000
opls_700-32    C    0.05229015    0.92445016    0.63496931    0.06710000
opls_145-33    C    0.13326992    0.15455016    0.77786892    -0.11580000
opls_145-34    C    0.84545014    0.97872007    0.77786892    -0.11580000
opls_145-35    C    0.02127995    0.86672977    0.77786892    -0.11590000
opls_145-36    C    0.16920002    0.21552009    0.78290897    -0.11580000
opls_145-37    C    0.78448013    0.95368006    0.78290897    -0.11580000
opls_145-38    C    0.04631986    0.83079985    0.78290897    -0.11580000
opls_700-39    C    0.14891990    0.25249016    0.64561920    0.05830000
opls_700-40    C    0.74751003    0.89642985    0.64561920    0.05830000
opls_700-41    C    0.10357006    0.85107999    0.64561920    0.05830000
opls_700-42    C    0.03668997    0.06206021    0.63223045    0.07160000
opls_700-43    C    0.93793998    0.97462998    0.63223045    0.07160000
opls_700-44    C    0.02537005    0.96330981    0.63223045    0.07160000
opls_145-45    C    0.97497992    0.03618009    0.63204878    -0.16630000
opls_145-46    C    0.96381996    0.93879986    0.63204878    -0.16620000
opls_145-47    C    0.06120012    0.02502005    0.63204878    -0.16630000
opls_142-48    C    0.13016019    0.81300012    0.65487902    0.02980000
opls_142-49    C    0.18699989    0.31715985    0.65487902    0.02980000
opls_142-50    C    0.68283992    0.86984003    0.65487902    0.02980000
opls_750-51    N    0.64962006    0.82032999    0.48383110    -0.28710000
opls_750-52    N    0.17967010    0.82928996    0.48383110    -0.28720000
opls_750-53    N    0.17070984    0.35038004    0.48383110    -0.28710000
opls_146-54    H    0.28576003    0.86611987    0.24943984    0.11260000
opls_146-55    H    0.13388010    0.41964016    0.24943984    0.11260000
opls_146-56    H    0.58035987    0.71423996    0.24943984    0.11260000
opls_146-57    H    0.33962027    0.81162019    0.21775992    0.11020000
opls_146-58    H    0.18837996    0.52799990    0.21775992    0.11010000
opls_146-59    H    0.47199977    0.66037990    0.21775992    0.11010000
opls_146-60    H    0.18847993    0.65877021    0.69867048    0.11790000
opls_146-61    H    0.34122974    0.52970984    0.69867048    0.11790000
opls_146-62    H    0.47028994    0.81151995    0.69867048    0.11790000
opls_146-63    H    0.13401002    0.71139983    0.70748988    0.11190000
opls_146-64    H    0.28859974    0.42260982    0.70748988    0.11200000
opls_146-65    H    0.57739002    0.86598991    0.70748988    0.11190000
opls_146-66    H    0.22331993    0.61137996    0.45511024    0.10470000
opls_146-67    H    0.38862017    0.61194018    0.45511024    0.10470000
opls_146-68    H    0.38805989    0.77667986    0.45511024    0.10470000
opls_146-69    H    0.07485006    0.25416993    0.39097966    0.06580000
opls_146-70    H    0.74582999    0.82067996    0.39097966    0.06580000
opls_146-71    H    0.17931995    0.92515010    0.39097966    0.06580000
opls_146-72    H    0.01135994    0.14620984    0.37364915    0.10550000
opls_146-73    H    0.85379000    0.86514980    0.37364915    0.11010000
opls_146-74    H    0.13484983    0.98863991    0.37364915    0.10560000
opls_146-75    H    0.15039018    0.12749016    0.89736024    0.10550000
opls_146-76    H    0.87250997    0.02289982    0.89736024    0.10550000
opls_146-77    H    0.97709984    0.84961002    0.89736024    0.10560000
opls_146-78    H    0.21386982    0.23498983    0.89987063    0.06050000
opls_146-79    H    0.76501016    0.97888020    0.89987063    0.06050000
opls_146-80    H    0.02112002    0.78612997    0.89987063    0.06050000
opls_146-81    H    0.95526982    0.06469985    0.63235982    0.13200000
opls_146-82    H    0.93530011    0.89056994    0.63235982    0.13210000
opls_146-83    H    0.10943007    0.04473021    0.63235982    0.13200000
opls_144-84    H    0.10563028    0.77081019    0.81586061    0.04630000
opls_144-85    H    0.22918987    0.33481986    0.81586061    0.04630000
opls_144-86    H    0.66517986    0.89436995    0.81586061    0.04630000
