#======================================================================
# Crystal Data Generated By AuToFF
#----------------------------------------------------------------------

data_AuToFF_phase_1

_cell_length_a                         24.8000
_cell_length_b                         44.0600
_cell_length_c                         4.5200
_cell_angle_alpha                      90.00
_cell_angle_beta                       104.86
_cell_angle_gamma                      90.00
_symmetry_space_group_name_H-M_alt     'P 1'
_symmetry_space_group_IT_number        1

loop_
_space_group_symop_operation_xyz
   'x, y, z'

loop_
   _atom_site_label
   _atom_site_type_symbol
   _atom_site_fract_x
   _atom_site_fract_y
   _atom_site_fract_z
   _atom_site_charge
opls_633-0    S    0.43701986    0.03667998    0.35669962    0.08050000
opls_633-1    S    0.93701986    0.53667998    0.35669962    0.08050000
opls_633-2    S    0.56298014    0.03667998    0.64330038    0.08050000
opls_633-3    S    0.06298014    0.53667998    0.64330038    0.08050000
opls_633-4    S    0.56298014    0.96332002    0.64330038    0.08050000
opls_633-5    S    0.06298014    0.46332002    0.64330038    0.08050000
opls_633-6    S    0.43701986    0.96332002    0.35669962    0.08050000
opls_633-7    S    0.93701986    0.46332002    0.35669962    0.08050000
opls_716-8    C    0.47210012    0.07299001    0.43597943    -0.05910000
opls_700-9    C    0.43594007    0.10043010    0.35858113    0.08000000
opls_145-10    C    0.44249982    0.12578007    0.55283909    -0.11860000
opls_145-11    C    0.40791000    0.15115002    0.47602905    -0.16670000
opls_145-12    C    0.36420994    0.15121993    0.20627033    0.19380000
opls_145-13    C    0.35594987    0.12545007    0.01932096    -0.16600000
opls_145-14    C    0.39153015    0.10045007    0.09264036    -0.12890000
opls_700-15    C    0.28883011    0.22683000    0.11751888    0.06970000
opls_145-16    C    0.24515987    0.22177009    0.85410053    -0.12990000
opls_142-17    C    0.33002014    0.20294008    0.24442013    0.07150000
opls_145-18    C    0.29331994    0.25524989    0.26185043    -0.12520000
opls_716-19    C    0.97210012    0.57299001    0.43597943    -0.05910000
opls_700-20    C    0.93594007    0.60043010    0.35858113    0.08000000
opls_145-21    C    0.94249982    0.62578007    0.55283909    -0.11860000
opls_145-22    C    0.90791000    0.65115002    0.47602905    -0.16670000
opls_145-23    C    0.86420994    0.65121993    0.20627033    0.19380000
opls_145-24    C    0.85594987    0.62545007    0.01932096    -0.16600000
opls_145-25    C    0.89153015    0.60045007    0.09264036    -0.12890000
opls_700-26    C    0.78883011    0.72683000    0.11751888    0.06970000
opls_145-27    C    0.74515987    0.72177009    0.85410053    -0.12990000
opls_142-28    C    0.83002014    0.70294008    0.24442013    0.07150000
opls_145-29    C    0.79331994    0.75524989    0.26185043    -0.12520000
opls_716-30    C    0.52789988    0.07299001    0.56402057    -0.05910000
opls_700-31    C    0.56406004    0.10043010    0.64142116    0.08000000
opls_145-32    C    0.55750018    0.12578007    0.44716091    -0.11860000
opls_145-33    C    0.59209000    0.15115002    0.52397095    -0.16670000
opls_145-34    C    0.63579006    0.15121993    0.79372967    0.19380000
opls_145-35    C    0.64405013    0.12545007    0.98067904    -0.16600000
opls_145-36    C    0.60846985    0.10045007    0.90735964    -0.12890000
opls_700-37    C    0.71116989    0.22683000    0.88248112    0.06970000
opls_145-38    C    0.75484013    0.22177009    0.14589947    -0.12990000
opls_142-39    C    0.66997986    0.20294008    0.75557987    0.07150000
opls_145-40    C    0.70668006    0.25524989    0.73814957    -0.12520000
opls_716-41    C    0.02789988    0.57299001    0.56402057    -0.05910000
opls_700-42    C    0.06406004    0.60043010    0.64142116    0.08000000
opls_145-43    C    0.05750018    0.62578007    0.44716091    -0.11860000
opls_145-44    C    0.09209000    0.65115002    0.52397095    -0.16670000
opls_145-45    C    0.13579006    0.65121993    0.79372967    0.19380000
opls_145-46    C    0.14405013    0.62545007    0.98067904    -0.16600000
opls_145-47    C    0.10846985    0.60045007    0.90735964    -0.12890000
opls_700-48    C    0.21116989    0.72683000    0.88248112    0.06970000
opls_145-49    C    0.25484013    0.72177009    0.14589947    -0.12990000
opls_142-50    C    0.16997986    0.70294008    0.75557987    0.07150000
opls_145-51    C    0.20668006    0.75524989    0.73814957    -0.12520000
opls_716-52    C    0.52789988    0.92700999    0.56402057    -0.05910000
opls_700-53    C    0.56406004    0.89956990    0.64142116    0.08000000
opls_145-54    C    0.55750018    0.87421993    0.44716091    -0.11860000
opls_145-55    C    0.59209000    0.84884998    0.52397095    -0.16670000
opls_145-56    C    0.63579006    0.84878007    0.79372967    0.19380000
opls_145-57    C    0.64405013    0.87454993    0.98067904    -0.16600000
opls_145-58    C    0.60846985    0.89954993    0.90735964    -0.12890000
opls_700-59    C    0.71116989    0.77317000    0.88248112    0.06970000
opls_145-60    C    0.75484013    0.77822991    0.14589947    -0.12990000
opls_142-61    C    0.66997986    0.79705992    0.75557987    0.07150000
opls_145-62    C    0.70668006    0.74474989    0.73814957    -0.12520000
opls_716-63    C    0.02789988    0.42700999    0.56402057    -0.05910000
opls_700-64    C    0.06406004    0.39956990    0.64142116    0.08000000
opls_145-65    C    0.05750018    0.37421993    0.44716091    -0.11860000
opls_145-66    C    0.09209000    0.34884998    0.52397095    -0.16670000
opls_145-67    C    0.13579006    0.34878007    0.79372967    0.19380000
opls_145-68    C    0.14405013    0.37454993    0.98067904    -0.16600000
opls_145-69    C    0.10846985    0.39954993    0.90735964    -0.12890000
opls_700-70    C    0.21116989    0.27317000    0.88248112    0.06970000
opls_145-71    C    0.25484013    0.27822991    0.14589947    -0.12990000
opls_142-72    C    0.16997986    0.29705992    0.75557987    0.07150000
opls_145-73    C    0.20668006    0.24475011    0.73814957    -0.12520000
opls_716-74    C    0.47210012    0.92700999    0.43597943    -0.05910000
opls_700-75    C    0.43594007    0.89956990    0.35858113    0.08000000
opls_145-76    C    0.44249982    0.87421993    0.55283909    -0.11860000
opls_145-77    C    0.40791000    0.84884998    0.47602905    -0.16660000
opls_145-78    C    0.36420994    0.84878007    0.20627033    0.19390000
opls_145-79    C    0.35594987    0.87454993    0.01932096    -0.16600000
opls_145-80    C    0.39153015    0.89954993    0.09264036    -0.12890000
opls_700-81    C    0.28883011    0.77317000    0.11751888    0.06970000
opls_145-82    C    0.24515987    0.77822991    0.85410053    -0.12990000
opls_142-83    C    0.33002014    0.79705992    0.24442013    0.07150000
opls_145-84    C    0.29331994    0.74474989    0.26185043    -0.12520000
opls_716-85    C    0.97210012    0.42700999    0.43597943    -0.05910000
opls_700-86    C    0.93594007    0.39956990    0.35858113    0.08000000
opls_145-87    C    0.94249982    0.37421993    0.55283909    -0.11860000
opls_145-88    C    0.90791000    0.34884998    0.47602905    -0.16670000
opls_145-89    C    0.86420994    0.34878007    0.20627033    0.19380000
opls_145-90    C    0.85594987    0.37454993    0.01932096    -0.16600000
opls_145-91    C    0.89153015    0.39954993    0.09264036    -0.12890000
opls_700-92    C    0.78883011    0.27317000    0.11751888    0.06970000
opls_145-93    C    0.74515987    0.27822991    0.85410053    -0.12990000
opls_142-94    C    0.83002014    0.29705992    0.24442013    0.07150000
opls_145-95    C    0.79331994    0.24475011    0.26185043    -0.12520000
opls_716-96    C    0.49999985    0.01528007    0.50000114    -0.12800000
opls_716-97    C    0.99999985    0.51528007    0.50000114    -0.12790000
opls_716-98    C    0.49999985    0.98471993    0.50000114    -0.12790000
opls_716-99    C    0.99999985    0.48471993    0.50000114    -0.12800000
opls_750-100    N    0.32716987    0.17653995    0.11271897    -0.33800000
opls_750-101    N    0.82716987    0.67653995    0.11271897    -0.33800000
opls_750-102    N    0.67283013    0.17653995    0.88728103    -0.33790000
opls_750-103    N    0.17283013    0.67653995    0.88728103    -0.33800000
opls_750-104    N    0.67283013    0.82346005    0.88728103    -0.33800000
opls_750-105    N    0.17283013    0.32346005    0.88728103    -0.33790000
opls_750-106    N    0.32716987    0.82346005    0.11271897    -0.33800000
opls_750-107    N    0.82716987    0.32346005    0.11271897    -0.33800000
opls_146-108    H    0.47419981    0.12599001    0.76553906    0.09620000
opls_146-109    H    0.41519992    0.17007989    0.63300930    0.12060000
opls_146-110    H    0.32237995    0.12500000    0.81156053    0.11490000
opls_146-111    H    0.38469996    0.08131003    0.93717082    0.11680000
opls_146-112    H    0.24076010    0.20012006    0.73673043    0.11350000
opls_144-113    H    0.36279980    0.20817000    0.44660928    0.12300000
opls_146-114    H    0.32648001    0.25964004    0.46582037    0.11590000
opls_146-115    H    0.97419981    0.62599001    0.76553906    0.09620000
opls_146-116    H    0.91519992    0.67007989    0.63300930    0.12060000
opls_146-117    H    0.82237995    0.62500000    0.81156053    0.11490000
opls_146-118    H    0.88469996    0.58131003    0.93717082    0.11680000
opls_146-119    H    0.74076010    0.70012006    0.73673043    0.11340000
opls_144-120    H    0.86279980    0.70817000    0.44660928    0.12300000
opls_146-121    H    0.82648001    0.75964004    0.46582037    0.11590000
opls_146-122    H    0.52580019    0.12599001    0.23446094    0.09620000
opls_146-123    H    0.58480008    0.17007989    0.36699070    0.12060000
opls_146-124    H    0.67762005    0.12500000    0.18843947    0.11490000
opls_146-125    H    0.61530004    0.08131003    0.06282918    0.11680000
opls_146-126    H    0.75923990    0.20012006    0.26326957    0.11340000
opls_144-127    H    0.63720020    0.20817000    0.55339072    0.12300000
opls_146-128    H    0.67351999    0.25964004    0.53417963    0.11590000
opls_146-129    H    0.02580019    0.62599001    0.23446094    0.09620000
opls_146-130    H    0.08480008    0.67007989    0.36699070    0.12060000
opls_146-131    H    0.17762005    0.62500000    0.18843947    0.11490000
opls_146-132    H    0.11530004    0.58131003    0.06282918    0.11680000
opls_146-133    H    0.25923990    0.70012006    0.26326957    0.11340000
opls_144-134    H    0.13720020    0.70817000    0.55339072    0.12300000
opls_146-135    H    0.17351999    0.75964004    0.53417963    0.11590000
opls_146-136    H    0.52580019    0.87400999    0.23446094    0.09620000
opls_146-137    H    0.58480008    0.82992011    0.36699070    0.12060000
opls_146-138    H    0.67762005    0.87500000    0.18843947    0.11490000
opls_146-139    H    0.61530004    0.91868997    0.06282918    0.11680000
opls_146-140    H    0.75923990    0.79987994    0.26326957    0.11340000
opls_144-141    H    0.63720020    0.79183000    0.55339072    0.12300000
opls_146-142    H    0.67351999    0.74035996    0.53417963    0.11590000
opls_146-143    H    0.02580019    0.37400999    0.23446094    0.09620000
opls_146-144    H    0.08480008    0.32992011    0.36699070    0.12070000
opls_146-145    H    0.17762005    0.37500000    0.18843947    0.11490000
opls_146-146    H    0.11530004    0.41868997    0.06282918    0.11680000
opls_146-147    H    0.25923990    0.29987994    0.26326957    0.11340000
opls_144-148    H    0.13720020    0.29183000    0.55339072    0.12300000
opls_146-149    H    0.17351999    0.24035996    0.53417963    0.11590000
opls_146-150    H    0.47419981    0.87400999    0.76553906    0.09620000
opls_146-151    H    0.41519992    0.82992011    0.63300930    0.12060000
opls_146-152    H    0.32237995    0.87500000    0.81156053    0.11490000
opls_146-153    H    0.38469996    0.91868997    0.93717082    0.11680000
opls_146-154    H    0.24076010    0.79987994    0.73673043    0.11340000
opls_144-155    H    0.36279980    0.79183000    0.44660928    0.12300000
opls_146-156    H    0.32648001    0.74035996    0.46582037    0.11590000
opls_146-157    H    0.97419981    0.37400999    0.76553906    0.09620000
opls_146-158    H    0.91519992    0.32992011    0.63300930    0.12060000
opls_146-159    H    0.82237995    0.37500000    0.81156053    0.11490000
opls_146-160    H    0.88469996    0.41868997    0.93717082    0.11680000
opls_146-161    H    0.74076010    0.29987994    0.73673043    0.11340000
opls_144-162    H    0.86279980    0.29183000    0.44660928    0.12300000
opls_146-163    H    0.82648001    0.24035996    0.46582037    0.11590000
