#======================================================================
# Crystal Data Generated By AuToFF
#----------------------------------------------------------------------

data_AuToFF_phase_1

_cell_length_a                         29.3000
_cell_length_b                         29.3000
_cell_length_c                         3.5000
_cell_angle_alpha                      90.00
_cell_angle_beta                       90.00
_cell_angle_gamma                      120.00
_symmetry_space_group_name_H-M_alt     'P 1'
_symmetry_space_group_IT_number        1

loop_
_space_group_symop_operation_xyz
   'x, y, z'

loop_
   _atom_site_label
   _atom_site_type_symbol
   _atom_site_fract_x
   _atom_site_fract_y
   _atom_site_fract_z
   _atom_site_charge
opls_522-0    C    0.42728978    0.47247990    0.50000000    -0.17230000
opls_521-1    C    0.48144996    0.50862006    0.50000000    0.12870000
opls_523-2    C    0.39288001    0.49131019    0.50000000    -0.20960000
opls_522-3    C    0.41284015    0.54544004    0.50000000    0.14820000
opls_521-4    C    0.46782002    0.58017998    0.50000000    0.03070000
opls_142-5    C    0.39422012    0.61819998    0.50000000    0.11070000
opls_280-6    C    0.30634001    0.60928001    0.50000000    0.27620000
opls_145-7    C    0.27574998    0.63620030    0.50000000    -0.12930000
opls_522-8    C    0.52751993    0.95482007    0.50000000    -0.17230000
opls_521-9    C    0.49137997    0.97283025    0.50000000    0.12870000
opls_523-10    C    0.50869024    0.90157024    0.50000000    -0.20960000
opls_522-11    C    0.45456000    0.86739031    0.50000000    0.14820000
opls_521-12    C    0.41982007    0.88764013    0.50000000    0.03070000
opls_142-13    C    0.38180009    0.77601998    0.50000000    0.11070000
opls_280-14    C    0.39072016    0.69706012    0.50000000    0.27620000
opls_145-15    C    0.36379997    0.63955012    0.50000000    -0.12930000
opls_522-16    C    0.04518006    0.57271028    0.50000000    -0.17230000
opls_521-17    C    0.02716993    0.51855009    0.50000000    0.12870000
opls_523-18    C    0.09842995    0.60711997    0.50000000    -0.20960000
opls_522-19    C    0.13261013    0.58716020    0.50000000    0.14820000
opls_521-20    C    0.11236011    0.53218029    0.50000000    0.03070000
opls_142-21    C    0.22398013    0.60578005    0.50000000    0.11070000
opls_280-22    C    0.30294003    0.69366026    0.50000000    0.27620000
opls_145-23    C    0.36044990    0.72424998    0.50000000    -0.12930000
opls_522-24    C    0.57270988    0.52752010    0.50000000    -0.17230000
opls_521-25    C    0.51855004    0.49137994    0.50000000    0.12870000
opls_523-26    C    0.60712019    0.50869021    0.50000000    -0.20960000
opls_522-27    C    0.58715985    0.45455996    0.50000000    0.14820000
opls_521-28    C    0.53217998    0.41982002    0.50000000    0.03070000
opls_142-29    C    0.60577988    0.38180002    0.50000000    0.11070000
opls_280-30    C    0.69365999    0.39071999    0.50000000    0.27620000
opls_145-31    C    0.72425022    0.36380009    0.50000000    -0.12930000
opls_522-32    C    0.47248007    0.04517993    0.50000000    -0.17250000
opls_521-33    C    0.50862003    0.02718000    0.50000000    0.12870000
opls_523-34    C    0.49130996    0.09843016    0.50000000    -0.20960000
opls_522-35    C    0.54544020    0.13261009    0.50000000    0.14820000
opls_521-36    C    0.58017993    0.11235987    0.50000000    0.03070000
opls_142-37    C    0.61819991    0.22398002    0.50000000    0.11070000
opls_280-38    C    0.60927984    0.30293988    0.50000000    0.27620000
opls_145-39    C    0.63620003    0.36044988    0.50000000    -0.12930000
opls_522-40    C    0.95482014    0.42729011    0.50000000    -0.17230000
opls_521-41    C    0.97283007    0.48144991    0.50000000    0.12870000
opls_523-42    C    0.90157005    0.39288003    0.50000000    -0.20960000
opls_522-43    C    0.86739006    0.41284019    0.50000000    0.14820000
opls_521-44    C    0.88764009    0.46782011    0.50000000    0.03070000
opls_142-45    C    0.77601987    0.39421995    0.50000000    0.11070000
opls_280-46    C    0.69706017    0.30634013    0.50000000    0.27620000
opls_145-47    C    0.63955010    0.27575002    0.50000000    -0.12920000
opls_520-48    N    0.50014979    0.56079992    0.50000000    -0.23950000
opls_238-49    N    0.37647995    0.56340016    0.50000000    -0.27640000
opls_520-50    N    0.43920018    0.93936008    0.50000000    -0.26830000
opls_238-51    N    0.43660005    0.81307996    0.50000000    -0.27650000
opls_520-52    N    0.06064014    0.49985024    0.50000000    -0.23950000
opls_238-53    N    0.18692020    0.62352027    0.50000000    -0.27650000
opls_520-54    N    0.49985021    0.43920008    0.50000000    -0.23950000
opls_238-55    N    0.62352025    0.43660023    0.50000000    -0.27620000
opls_520-56    N    0.56079982    0.06063992    0.50000000    -0.26830000
opls_238-57    N    0.56339995    0.18692004    0.50000000    -0.27650000
opls_520-58    N    0.93936006    0.50015015    0.50000000    -0.23950000
opls_238-59    N    0.81307999    0.37648013    0.50000000    -0.27640000
opls_281-60    O    0.43869026    0.72151022    0.50000000    -0.37930000
opls_281-61    O    0.27849015    0.71718029    0.50000000    -0.37930000
opls_281-62    O    0.28281998    0.56131027    0.50000000    -0.37930000
opls_281-63    O    0.56130993    0.27849017    0.50000000    -0.37930000
opls_281-64    O    0.72151005    0.28282010    0.50000000    -0.37920000
opls_281-65    O    0.71718021    0.43869012    0.50000000    -0.37930000
opls_525-66    H    0.41197020    0.43033017    0.50000000    0.10870000
opls_526-67    H    0.35084993    0.46395994    0.50000000    0.11040000
opls_524-68    H    0.48752998    0.62225995    0.50000000    0.11200000
opls_144-69    H    0.43544995    0.64534017    0.50000000    0.11190000
opls_910-70    H    0.33720011    0.53400022    0.50000000    0.28000000
opls_525-71    H    0.56967011    0.98165011    0.50000000    0.10860000
opls_526-72    H    0.53604016    0.88688031    0.50000000    0.10870000
opls_524-73    H    0.37774015    0.86527007    0.50000000    0.11200000
opls_144-74    H    0.35466016    0.79011009    0.50000000    0.11190000
opls_910-75    H    0.46599999    0.80319998    0.50000000    0.28000000
opls_525-76    H    0.01835014    0.58802997    0.50000000    0.10870000
opls_526-77    H    0.11312000    0.64916014    0.50000000    0.10860000
opls_524-78    H    0.13472987    0.51246998    0.50000000    0.11200000
opls_144-79    H    0.20989008    0.56455014    0.50000000    0.11190000
opls_910-80    H    0.19680010    0.66280019    0.50000000    0.28000000
opls_525-81    H    0.58802999    0.56967023    0.50000000    0.10860000
opls_526-82    H    0.64915996    0.53604006    0.50000000    0.10870000
opls_524-83    H    0.51247002    0.37774005    0.50000000    0.11200000
opls_144-84    H    0.56455025    0.35466022    0.50000000    0.11190000
opls_910-85    H    0.66280009    0.46600017    0.50000000    0.28000000
opls_525-86    H    0.43032989    0.01834989    0.50000000    0.10860000
opls_526-87    H    0.46396004    0.11312008    0.50000000    0.10870000
opls_524-88    H    0.62225985    0.13472993    0.50000000    0.11200000
opls_144-89    H    0.64533984    0.20988991    0.50000000    0.11190000
opls_910-90    H    0.53400001    0.19680002    0.50000000    0.28000000
opls_525-91    H    0.98164986    0.41197003    0.50000000    0.10870000
opls_526-92    H    0.88688019    0.35084025    0.50000000    0.10870000
opls_524-93    H    0.86527013    0.48753002    0.50000000    0.11200000
opls_144-94    H    0.79011011    0.43545026    0.50000000    0.11190000
opls_910-95    H    0.80320010    0.33720020    0.50000000    0.28000000
