#======================================================================
# Crystal Data Generated By AuToFF
#----------------------------------------------------------------------

data_AuToFF_phase_1

_cell_length_a                         20.4141
_cell_length_b                         20.4141
_cell_length_c                         8.8216
_cell_angle_alpha                      90.00
_cell_angle_beta                       90.00
_cell_angle_gamma                      90.00
_symmetry_space_group_name_H-M_alt     'P 1'
_symmetry_space_group_IT_number        1

loop_
_space_group_symop_operation_xyz
   'x, y, z'

loop_
   _atom_site_label
   _atom_site_type_symbol
   _atom_site_fract_x
   _atom_site_fract_y
   _atom_site_fract_z
   _atom_site_charge
opls_750-0    N    0.68189977    0.71089982    0.63068038    -0.34500000
opls_750-1    N    0.18189977    0.21089982    0.13068038    -0.34500000
opls_750-2    N    0.81810023    0.28910018    0.13068038    -0.34490000
opls_750-3    N    0.31810023    0.78910018    0.63068038    -0.34490000
opls_750-4    N    0.03909994    0.93190001    0.88068038    -0.34500000
opls_750-5    N    0.53909994    0.43190001    0.38068038    -0.34500000
opls_750-6    N    0.46090006    0.06809999    0.38068038    -0.34500000
opls_750-7    N    0.96090006    0.56809999    0.88068038    -0.34500000
opls_750-8    N    0.31810023    0.28910018    0.36932983    -0.34500000
opls_750-9    N    0.81810023    0.78910018    0.86932983    -0.34490000
opls_750-10    N    0.18189977    0.71089982    0.86932983    -0.34500000
opls_750-11    N    0.68189977    0.21089982    0.36932983    -0.34490000
opls_750-12    N    0.96090006    0.06809999    0.11932983    -0.34340000
opls_750-13    N    0.46090006    0.56809999    0.61932983    -0.34490000
opls_750-14    N    0.53909994    0.93190001    0.61932983    -0.34500000
opls_750-15    N    0.03909994    0.43190001    0.11932983    -0.34340000
opls_700-16    C    0.56000020    0.74189996    0.01499955    0.06210000
opls_145-17    C    0.64590014    0.72489995    0.76578965    0.15190000
opls_145-18    C    0.63289981    0.67189981    0.86223021    -0.22970000
opls_145-19    C    0.59000005    0.67990017    0.98601047    -0.22170000
opls_145-20    C    0.61789988    0.78799996    0.79700054    -0.22920000
opls_142-21    C    0.70490004    0.76000020    0.55590029    0.09560000
opls_145-22    C    0.74989982    0.81100024    0.32502947    -0.22210000
opls_145-23    C    0.57500012    0.79500002    0.92000998    -0.22160000
opls_700-24    C    0.73090021    0.75199984    0.39923030    0.04420000
opls_145-25    C    0.73090021    0.69089992    0.32590006    -0.22170000
opls_700-26    C    0.06000020    0.24189996    0.51499955    0.06200000
opls_145-27    C    0.14590014    0.22489995    0.26578965    0.15190000
opls_145-28    C    0.13289981    0.17189981    0.36223021    -0.22970000
opls_145-29    C    0.09000005    0.17990017    0.48600027    -0.22160000
opls_145-30    C    0.11789988    0.28799996    0.29700054    -0.22930000
opls_142-31    C    0.20490004    0.26000020    0.05590029    0.09560000
opls_145-32    C    0.24989982    0.31100024    0.82502947    -0.22210000
opls_145-33    C    0.07500012    0.29500002    0.41999977    -0.22160000
opls_700-34    C    0.23090021    0.25199984    0.89923030    0.04410000
opls_145-35    C    0.23090021    0.19089992    0.82590006    -0.22160000
opls_700-36    C    0.93999980    0.25810004    0.51499955    0.06200000
opls_145-37    C    0.85409986    0.27510005    0.26578965    0.15190000
opls_145-38    C    0.86710019    0.32810019    0.36223021    -0.22970000
opls_145-39    C    0.90999995    0.32009983    0.48600027    -0.22170000
opls_145-40    C    0.88210012    0.21200004    0.29700054    -0.22930000
opls_142-41    C    0.79509996    0.23999980    0.05590029    0.09560000
opls_145-42    C    0.75010018    0.18899976    0.82502947    -0.22210000
opls_145-43    C    0.92499988    0.20499998    0.41999977    -0.22160000
opls_700-44    C    0.76909979    0.24800016    0.89923030    0.04410000
opls_145-45    C    0.76909979    0.30910008    0.82590006    -0.22170000
opls_700-46    C    0.43999980    0.75810004    0.01499955    0.06200000
opls_145-47    C    0.35409986    0.77510005    0.76578965    0.15190000
opls_145-48    C    0.36710019    0.82810019    0.86223021    -0.22970000
opls_145-49    C    0.40999995    0.82009983    0.98601047    -0.22170000
opls_145-50    C    0.38210012    0.71200004    0.79700054    -0.22910000
opls_142-51    C    0.29509996    0.73999980    0.55590029    0.09560000
opls_145-52    C    0.25010018    0.68899976    0.32502947    -0.22210000
opls_145-53    C    0.42499988    0.70499998    0.92000998    -0.22160000
opls_700-54    C    0.26909979    0.74800016    0.39923030    0.04410000
opls_145-55    C    0.26909979    0.80910008    0.32590006    -0.22170000
opls_700-56    C    0.00809979    0.80999995    0.26499955    0.06200000
opls_145-57    C    0.02509981    0.89589989    0.01578965    0.15190000
opls_145-58    C    0.07809994    0.88290005    0.11223021    -0.22970000
opls_145-59    C    0.07010008    0.83999980    0.23600027    -0.22170000
opls_145-60    C    0.96199979    0.86790013    0.04700054    -0.22930000
opls_142-61    C    0.99000005    0.95489980    0.80590029    0.09560000
opls_145-62    C    0.93900000    0.99990007    0.57502947    -0.22210000
opls_145-63    C    0.95500022    0.82499988    0.16999977    -0.22150000
opls_700-64    C    0.99799991    0.98089997    0.64923030    0.04410000
opls_145-65    C    0.05909984    0.98089997    0.57590006    -0.22170000
opls_700-66    C    0.50809979    0.30999995    0.76499955    0.06200000
opls_145-67    C    0.52509981    0.39589989    0.51578965    0.15190000
opls_145-68    C    0.57809994    0.38290005    0.61223021    -0.22960000
opls_145-69    C    0.57010008    0.33999980    0.73600027    -0.22170000
opls_145-70    C    0.46199979    0.36790013    0.54700054    -0.22930000
opls_142-71    C    0.49000005    0.45489980    0.30590029    0.09560000
opls_145-72    C    0.43900000    0.49990007    0.07502040    -0.22220000
opls_145-73    C    0.45500022    0.32499988    0.66999977    -0.22160000
opls_700-74    C    0.49799991    0.48089997    0.14923030    0.04410000
opls_145-75    C    0.55909984    0.48089997    0.07590006    -0.22170000
opls_700-76    C    0.49190021    0.19000005    0.76499955    0.06200000
opls_145-77    C    0.47490019    0.10410011    0.51578965    0.15190000
opls_145-78    C    0.42190006    0.11709995    0.61223021    -0.22970000
opls_145-79    C    0.42989992    0.16000020    0.73600027    -0.22170000
opls_145-80    C    0.53800021    0.13209987    0.54700054    -0.22930000
opls_142-81    C    0.50999995    0.04510020    0.30590029    0.09560000
opls_145-82    C    0.56100000    0.00009993    0.07502040    -0.22220000
opls_145-83    C    0.54499978    0.17500012    0.66999977    -0.22150000
opls_700-84    C    0.50200009    0.01910003    0.14923030    0.04410000
opls_145-85    C    0.44090016    0.01910003    0.07590006    -0.22170000
opls_700-86    C    0.99190021    0.69000005    0.26499955    0.06200000
opls_145-87    C    0.97490019    0.60410011    0.01578965    0.15190000
opls_145-88    C    0.92190006    0.61709995    0.11223021    -0.22970000
opls_145-89    C    0.92989992    0.66000020    0.23600027    -0.22170000
opls_145-90    C    0.03800021    0.63209987    0.04700054    -0.22930000
opls_142-91    C    0.00999995    0.54510020    0.80590029    0.09560000
opls_145-92    C    0.06100000    0.50009993    0.57502947    -0.22210000
opls_145-93    C    0.04499978    0.67500012    0.16999977    -0.22160000
opls_700-94    C    0.00200009    0.51910003    0.64923030    0.04410000
opls_145-95    C    0.94090016    0.51910003    0.57590006    -0.22170000
opls_700-96    C    0.43999980    0.25810004    0.98500952    0.06200000
opls_145-97    C    0.35409986    0.27510005    0.23421035    0.15190000
opls_145-98    C    0.36710019    0.32810019    0.13777999    -0.22960000
opls_145-99    C    0.40999995    0.32009983    0.01399973    -0.22160000
opls_145-100    C    0.38210012    0.21200004    0.20299946    -0.22930000
opls_142-101    C    0.29509996    0.23999980    0.44409971    0.09560000
opls_145-102    C    0.25010018    0.18899976    0.67497960    -0.22220000
opls_145-103    C    0.42499988    0.20499998    0.08000023    -0.22160000
opls_700-104    C    0.26909979    0.24800016    0.60077990    0.04410000
opls_145-105    C    0.26909979    0.30910008    0.67409994    -0.22160000
opls_700-106    C    0.93999980    0.75810004    0.48500045    0.06200000
opls_145-107    C    0.85409986    0.77510005    0.73422055    0.15190000
opls_145-108    C    0.86710019    0.82810019    0.63777999    -0.22970000
opls_145-109    C    0.90999995    0.82009983    0.51399973    -0.22170000
opls_145-110    C    0.88210012    0.71200004    0.70299946    -0.22930000
opls_142-111    C    0.79509996    0.73999980    0.94410991    0.09560000
opls_145-112    C    0.75010018    0.68899976    0.17497960    -0.22220000
opls_145-113    C    0.92499988    0.70499998    0.58000023    -0.22160000
opls_700-114    C    0.76909979    0.74800016    0.10077990    0.04410000
opls_145-115    C    0.76909979    0.80910008    0.17409994    -0.22160000
opls_700-116    C    0.06000020    0.74189996    0.48500045    0.06200000
opls_145-117    C    0.14590014    0.72489995    0.73422055    0.15190000
opls_145-118    C    0.13289981    0.67189981    0.63777999    -0.22960000
opls_145-119    C    0.09000005    0.67990017    0.51399973    -0.22170000
opls_145-120    C    0.11789988    0.78799996    0.70299946    -0.22930000
opls_142-121    C    0.20490004    0.76000020    0.94410991    0.09560000
opls_145-122    C    0.24989982    0.81100024    0.17497960    -0.22200000
opls_145-123    C    0.07500012    0.79500002    0.58000023    -0.22150000
opls_700-124    C    0.23090021    0.75199984    0.10077990    0.04410000
opls_145-125    C    0.23090021    0.69089992    0.17409994    -0.22170000
opls_700-126    C    0.56000020    0.24189996    0.98500952    0.06200000
opls_145-127    C    0.64590014    0.22489995    0.23421035    0.15190000
opls_145-128    C    0.63289981    0.17189981    0.13777999    -0.22970000
opls_145-129    C    0.59000005    0.17990017    0.01399973    -0.22160000
opls_145-130    C    0.61789988    0.28799996    0.20299946    -0.22920000
opls_142-131    C    0.70490004    0.26000020    0.44409971    0.09560000
opls_145-132    C    0.74989982    0.31100024    0.67497960    -0.22220000
opls_145-133    C    0.57500012    0.29500002    0.08000023    -0.22160000
opls_700-134    C    0.73090021    0.25199984    0.60077990    0.04410000
opls_145-135    C    0.73090021    0.19089992    0.67409994    -0.22170000
opls_700-136    C    0.99190021    0.19000005    0.73500045    0.06200000
opls_145-137    C    0.97490019    0.10410011    0.98422055    0.15190000
opls_145-138    C    0.92190006    0.11709995    0.88777999    -0.22970000
opls_145-139    C    0.92989992    0.16000020    0.76399973    -0.22170000
opls_145-140    C    0.03800021    0.13209987    0.95300966    -0.22930000
opls_142-141    C    0.00999995    0.04510020    0.19409971    0.09560000
opls_145-142    C    0.06100000    0.00009993    0.42497960    -0.22220000
opls_145-143    C    0.04499978    0.17500012    0.83000023    -0.22180000
opls_700-144    C    0.00200009    0.01910003    0.35077990    0.04410000
opls_145-145    C    0.94090016    0.01910003    0.42409994    -0.22170000
opls_700-146    C    0.49190021    0.69000005    0.23500045    0.06200000
opls_145-147    C    0.47490019    0.60410011    0.48421035    0.15190000
opls_145-148    C    0.42190006    0.61709995    0.38777999    -0.22970000
opls_145-149    C    0.42989992    0.66000020    0.26399973    -0.22160000
opls_145-150    C    0.53800021    0.63209987    0.45299946    -0.22930000
opls_142-151    C    0.50999995    0.54510020    0.69409971    0.09560000
opls_145-152    C    0.56100000    0.50009993    0.92497960    -0.22210000
opls_145-153    C    0.54499978    0.67500012    0.33000023    -0.22160000
opls_700-154    C    0.50200009    0.51910003    0.85077990    0.04410000
opls_145-155    C    0.44090016    0.51910003    0.92411014    -0.22170000
opls_700-156    C    0.50809979    0.80999995    0.23500045    0.06200000
opls_145-157    C    0.52509981    0.89589989    0.48421035    0.15200000
opls_145-158    C    0.57809994    0.88290005    0.38777999    -0.22960000
opls_145-159    C    0.57010008    0.83999980    0.26399973    -0.22170000
opls_145-160    C    0.46199979    0.86790013    0.45299946    -0.22930000
opls_142-161    C    0.49000005    0.95489980    0.69409971    0.09560000
opls_145-162    C    0.43900000    0.99990007    0.92497960    -0.22220000
opls_145-163    C    0.45500022    0.82499988    0.33000023    -0.22150000
opls_700-164    C    0.49799991    0.98089997    0.85077990    0.04420000
opls_145-165    C    0.55909984    0.98089997    0.92411014    -0.22160000
opls_700-166    C    0.00809979    0.30999995    0.73500045    0.06200000
opls_145-167    C    0.02509981    0.39589989    0.98422055    0.15190000
opls_145-168    C    0.07809994    0.38290005    0.88777999    -0.22970000
opls_145-169    C    0.07010008    0.33999980    0.76399973    -0.22170000
opls_145-170    C    0.96199979    0.36790013    0.95300966    -0.22930000
opls_142-171    C    0.99000005    0.45489980    0.19409971    0.09560000
opls_145-172    C    0.93900000    0.49990007    0.42497960    -0.22220000
opls_145-173    C    0.95500022    0.32499988    0.83000023    -0.22180000
opls_700-174    C    0.99799991    0.48089997    0.35077990    0.04410000
opls_145-175    C    0.05909984    0.48089997    0.42409994    -0.22160000
opls_701-176    C    0.50000000    0.75000024    0.12500000    0.02370000
opls_701-177    C    0.00000000    0.25000024    0.62500000    0.02370000
opls_701-178    C    0.00000000    0.75000024    0.37500000    0.02370000
opls_701-179    C    0.50000000    0.25000024    0.87501020    0.02370000
opls_146-180    H    0.65390000    0.62887024    0.84323025    0.20560000
opls_146-181    H    0.58203007    0.64187008    0.05099982    0.20580000
opls_146-182    H    0.62702985    0.82499988    0.73590052    0.20600000
opls_144-183    H    0.70589984    0.80299989    0.60090006    0.09660000
opls_146-184    H    0.74989982    0.85300013    0.37603043    0.20580000
opls_146-185    H    0.55600002    0.83900000    0.94100957    0.20580000
opls_146-186    H    0.71789988    0.65090011    0.37500000    0.20580000
opls_146-187    H    0.15390000    0.12887024    0.34323025    0.20560000
opls_146-188    H    0.08203007    0.14187008    0.55099982    0.20570000
opls_146-189    H    0.12702985    0.32499988    0.23590052    0.20590000
opls_144-190    H    0.20589984    0.30299989    0.10090006    0.09660000
opls_146-191    H    0.24989982    0.35300013    0.87603043    0.20590000
opls_146-192    H    0.05600002    0.33900000    0.44100050    0.20580000
opls_146-193    H    0.21789988    0.15090011    0.87501020    0.20590000
opls_146-194    H    0.84610000    0.37112976    0.34323025    0.20560000
opls_146-195    H    0.91796993    0.35812992    0.55099982    0.20570000
opls_146-196    H    0.87297015    0.17500012    0.23590052    0.20590000
opls_144-197    H    0.79410016    0.19700011    0.10090006    0.09660000
opls_146-198    H    0.75010018    0.14699987    0.87603043    0.20590000
opls_146-199    H    0.94399998    0.16100000    0.44100050    0.20580000
opls_146-200    H    0.78210012    0.34909989    0.87501020    0.20580000
opls_146-201    H    0.34610000    0.87112976    0.84323025    0.20570000
opls_146-202    H    0.41796993    0.85812992    0.05099982    0.20570000
opls_146-203    H    0.37297015    0.67500012    0.73590052    0.20580000
opls_144-204    H    0.29410016    0.69700011    0.60090006    0.09660000
opls_146-205    H    0.25010018    0.64699987    0.37603043    0.20580000
opls_146-206    H    0.44399998    0.66100000    0.94100957    0.20590000
opls_146-207    H    0.28210012    0.84909989    0.37500000    0.20580000
opls_146-208    H    0.12113000    0.90389976    0.09323025    0.20560000
opls_146-209    H    0.10813016    0.83202982    0.30099982    0.20570000
opls_146-210    H    0.92499988    0.87703009    0.98590959    0.20590000
opls_144-211    H    0.94699987    0.95590009    0.85091027    0.09660000
opls_146-212    H    0.89700011    0.99990007    0.62603043    0.20580000
opls_146-213    H    0.91100024    0.80599977    0.19100050    0.20580000
opls_146-214    H    0.09910013    0.96790013    0.62500000    0.20580000
opls_146-215    H    0.62113000    0.40389976    0.59323025    0.20560000
opls_146-216    H    0.60813016    0.33202982    0.80099982    0.20570000
opls_146-217    H    0.42499988    0.37703009    0.48590052    0.20580000
opls_144-218    H    0.44699987    0.45590009    0.35090006    0.09660000
opls_146-219    H    0.39700011    0.49990007    0.12603043    0.20580000
opls_146-220    H    0.41100024    0.30599977    0.69100050    0.20580000
opls_146-221    H    0.59910013    0.46790013    0.12500000    0.20580000
opls_146-222    H    0.37887000    0.09610024    0.59323025    0.20560000
opls_146-223    H    0.39186984    0.16797018    0.80099982    0.20570000
opls_146-224    H    0.57500012    0.12296991    0.48590052    0.20580000
opls_144-225    H    0.55300013    0.04409991    0.35090006    0.09660000
opls_146-226    H    0.60299989    0.00009993    0.12603043    0.20580000
opls_146-227    H    0.58899976    0.19400023    0.69100050    0.20590000
opls_146-228    H    0.40089987    0.03209987    0.12500000    0.20590000
opls_146-229    H    0.87887000    0.59610024    0.09323025    0.20570000
opls_146-230    H    0.89186984    0.66797018    0.30099982    0.20570000
opls_146-231    H    0.07500012    0.62296991    0.98590959    0.20580000
opls_144-232    H    0.05300013    0.54409991    0.85091027    0.09670000
opls_146-233    H    0.10299989    0.50009993    0.62603043    0.20580000
opls_146-234    H    0.08899976    0.69400023    0.19100050    0.20590000
opls_146-235    H    0.90089987    0.53209987    0.62500000    0.20580000
opls_146-236    H    0.34610000    0.37112976    0.15677995    0.20560000
opls_146-237    H    0.41796993    0.35812992    0.94900018    0.20570000
opls_146-238    H    0.37297015    0.17500012    0.26409948    0.20580000
opls_144-239    H    0.29410016    0.19700011    0.39909994    0.09660000
opls_146-240    H    0.25010018    0.14699987    0.62397978    0.20580000
opls_146-241    H    0.44399998    0.16100000    0.05899950    0.20580000
opls_146-242    H    0.28210012    0.34909989    0.62500000    0.20580000
opls_146-243    H    0.84610000    0.87112976    0.65677995    0.20560000
opls_146-244    H    0.91796993    0.85812992    0.44900018    0.20580000
opls_146-245    H    0.87297015    0.67500012    0.76409948    0.20580000
opls_144-246    H    0.79410016    0.69700011    0.89911014    0.09660000
opls_146-247    H    0.75010018    0.64699987    0.12396957    0.20580000
opls_146-248    H    0.94399998    0.66100000    0.55899950    0.20580000
opls_146-249    H    0.78210012    0.84909989    0.12500000    0.20580000
opls_146-250    H    0.15390000    0.62887024    0.65677995    0.20560000
opls_146-251    H    0.08203007    0.64187008    0.44900018    0.20570000
opls_146-252    H    0.12702985    0.82499988    0.76409948    0.20580000
opls_144-253    H    0.20589984    0.80299989    0.89911014    0.09660000
opls_146-254    H    0.24989982    0.85300013    0.12396957    0.20580000
opls_146-255    H    0.05600002    0.83900000    0.55899950    0.20590000
opls_146-256    H    0.21789988    0.65090011    0.12500000    0.20580000
opls_146-257    H    0.65390000    0.12887024    0.15677995    0.20560000
opls_146-258    H    0.58203007    0.14187008    0.94900018    0.20570000
opls_146-259    H    0.62702985    0.32499988    0.26409948    0.20580000
opls_144-260    H    0.70589984    0.30299989    0.39909994    0.09660000
opls_146-261    H    0.74989982    0.35300013    0.62397978    0.20590000
opls_146-262    H    0.55600002    0.33900000    0.05899950    0.20580000
opls_146-263    H    0.71789988    0.15090011    0.62500000    0.20580000
opls_146-264    H    0.87887000    0.09610024    0.90677995    0.20560000
opls_146-265    H    0.89186984    0.16797018    0.69900018    0.20570000
opls_146-266    H    0.07500012    0.12296991    0.01409948    0.20580000
opls_144-267    H    0.05300013    0.04409991    0.14909994    0.09660000
opls_146-268    H    0.10299989    0.00009993    0.37396957    0.20580000
opls_146-269    H    0.08899976    0.19400023    0.80899950    0.20580000
opls_146-270    H    0.90089987    0.03209987    0.37500000    0.20590000
opls_146-271    H    0.37887000    0.59610024    0.40677995    0.20560000
opls_146-272    H    0.39186984    0.66797018    0.19900018    0.20570000
opls_146-273    H    0.57500012    0.62296991    0.51409948    0.20580000
opls_144-274    H    0.55300013    0.54409991    0.64909994    0.09660000
opls_146-275    H    0.60299989    0.50009993    0.87397978    0.20580000
opls_146-276    H    0.58899976    0.69400023    0.30899950    0.20600000
opls_146-277    H    0.40089987    0.53209987    0.87501020    0.20580000
opls_146-278    H    0.62113000    0.90389976    0.40677995    0.20560000
opls_146-279    H    0.60813016    0.83202982    0.19900018    0.20570000
opls_146-280    H    0.42499988    0.87703009    0.51409948    0.20580000
opls_144-281    H    0.44699987    0.95590009    0.64909994    0.09670000
opls_146-282    H    0.39700011    0.99990007    0.87397978    0.20580000
opls_146-283    H    0.41100024    0.80599977    0.30899950    0.20580000
opls_146-284    H    0.59910013    0.96790013    0.87501020    0.20580000
opls_146-285    H    0.12113000    0.40389976    0.90677995    0.20570000
opls_146-286    H    0.10813016    0.33202982    0.69900018    0.20570000
opls_146-287    H    0.92499988    0.37703009    0.01409948    0.20580000
opls_144-288    H    0.94699987    0.45590009    0.14909994    0.09670000
opls_146-289    H    0.89700011    0.49990007    0.37396957    0.20580000
opls_146-290    H    0.91100024    0.30599977    0.80899950    0.20580000
opls_146-291    H    0.09910013    0.46790013    0.37500000    0.20580000
