#======================================================================
# Crystal Data Generated By AuToFF
#----------------------------------------------------------------------

data_AuToFF_phase_1

_cell_length_a                         37.3008
_cell_length_b                         37.3052
_cell_length_c                         3.5300
_cell_angle_alpha                      90.01
_cell_angle_beta                       89.99
_cell_angle_gamma                      120.02
_symmetry_space_group_name_H-M_alt     'P 1'
_symmetry_space_group_IT_number        1

loop_
_space_group_symop_operation_xyz
   'x, y, z'

loop_
   _atom_site_label
   _atom_site_type_symbol
   _atom_site_fract_x
   _atom_site_fract_y
   _atom_site_fract_z
   _atom_site_charge
opls_700-0    C    0.47701007    0.51758995    0.21060907    -0.03460000
opls_166-1    C    0.46338012    0.47477999    0.17064873    0.22070000
opls_145-2    C    0.49121023    0.46048018    0.23237110    -0.23850000
opls_700-3    C    0.53192010    0.48716007    0.35467989    -0.05460000
opls_166-4    C    0.54484011    0.52917994    0.41530028    0.21020000
opls_145-5    C    0.51747011    0.54400992    0.34328045    -0.29850000
opls_181-6    C    0.61172007    0.59020994    0.37420113    -0.19680000
opls_181-7    C    0.38920011    0.44002003    0.26247875    -0.19670000
opls_142-8    C    0.56134001    0.47165005    0.41030028    0.07680000
opls_142-9    C    0.44986989    0.53492997    0.11245892    0.07680000
opls_145-10    C    0.43682012    0.59233010    0.08833994    0.19380000
opls_145-11    C    0.57559011    0.41404007    0.36264873    0.19160000
opls_145-12    C    0.55790023    0.37249016    0.25377904    -0.16490000
opls_145-13    C    0.58142996    0.35276013    0.24588952    -0.12950000
opls_700-14    C    0.62345995    0.37412995    0.35101133    0.06870000
opls_145-15    C    0.64090993    0.41555988    0.47107082    -0.13010000
opls_145-16    C    0.61742009    0.43537005    0.47605949    -0.17510000
opls_145-17    C    0.45492002    0.63302011    0.95528895    -0.16700000
opls_145-18    C    0.43090012    0.65178993    0.89666856    -0.12910000
opls_700-19    C    0.38825024    0.63084013    0.98522946    0.06250000
opls_145-20    C    0.37072987    0.59031996    0.13335127    -0.12980000
opls_145-21    C    0.39451006    0.57118994    0.17941076    -0.16600000
opls_700-22    C    0.64943005    0.35401016    0.31781020    0.07010000
opls_700-23    C    0.36211011    0.65050012    0.91230028    0.07110000
opls_145-24    C    0.69044014    0.37692014    0.19909915    -0.08360000
opls_166-25    C    0.31238027    0.68729018    0.73709915    0.18510000
opls_700-26    C    0.49256015    0.96413997    0.73015014    -0.02980000
opls_166-27    C    0.53402010    0.99711995    0.72003116    0.21520000
opls_145-28    C    0.54250000    0.03739002    0.79966006    -0.25700000
opls_700-29    C    0.51098008    0.04607981    0.89794901    -0.03230000
opls_166-30    C    0.46940005    0.01343981    0.88847875    0.21010000
opls_145-31    C    0.46097008    0.97318992    0.81356091    -0.24120000
opls_181-32    C    0.42746991    0.04493992    0.77039943    -0.19670000
opls_181-33    C    0.57564017    0.96491018    0.82886119    -0.19680000
opls_142-34    C    0.52262007    0.08871988    0.01820963    0.07050000
opls_142-35    C    0.48090009    0.92024001    0.66718980    0.07120000
opls_145-36    C    0.42725004    0.84765006    0.80439943    0.19930000
opls_145-37    C    0.57806004    0.15668006    0.22664023    0.20130000
opls_145-38    C    0.61493986    0.17469991    0.42877054    -0.17440000
opls_145-39    C    0.63690998    0.21722004    0.48826912    -0.18960000
opls_700-40    C    0.62726997    0.24403010    0.29749008    0.06170000
opls_145-41    C    0.58780021    0.22549017    0.12103116    -0.13600000
opls_145-42    C    0.56308990    0.18218995    0.09024079    -0.18360000
opls_145-43    C    0.38928020    0.82602002    0.98505949    -0.16750000
opls_145-44    C    0.36902000    0.78326996    0.00694901    -0.18920000
opls_700-45    C    0.38173993    0.75980989    0.80245042    0.06820000
opls_145-46    C    0.42185989    0.78162990    0.63873088    -0.17350000
opls_145-47    C    0.44481007    0.82537992    0.64324079    -0.18540000
opls_700-48    C    0.65460998    0.29067012    0.31056941    -0.01990000
opls_700-49    C    0.35663008    0.71314010    0.81032011    -0.02190000
opls_145-50    C    0.63270009    0.31172998    0.38503116    -0.17310000
opls_145-51    C    0.31960998    0.62610994    0.84616997    -0.08510000
opls_700-52    C    0.04755003    0.52484996    0.74632011    -0.03390000
opls_166-53    C    0.02142023    0.54236017    0.74205949    0.21730000
opls_145-54    C    0.97915009    0.51723990    0.81662890    -0.24110000
opls_700-55    C    0.96190009    0.47519995    0.90975071    -0.03340000
opls_166-56    C    0.98795996    0.45762006    0.91167989    0.22010000
opls_145-57    C    0.03025004    0.48274003    0.83722946    -0.23590000
opls_181-58    C    0.94276992    0.38421001    0.79673088    -0.19680000
opls_181-59    C    0.06629012    0.61580987    0.85909065    -0.19600000
opls_142-60    C    0.91719015    0.45035014    0.00094901    0.06970000
opls_142-61    C    0.09252007    0.55004015    0.66707082    0.06910000
opls_145-62    C    0.16181009    0.56257011    0.73071955    0.19770000
opls_145-63    C    0.84832003    0.43987001    0.99775921    0.20080000
opls_145-64    C    0.82485006    0.45551990    0.16209065    -0.16590000
opls_145-65    C    0.78198011    0.42982008    0.21084136    -0.13160000
opls_700-66    C    0.76125002    0.38845003    0.07601133    0.06360000
opls_145-67    C    0.78505022    0.37550008    0.87149858    -0.12810000
opls_145-68    C    0.82789009    0.39992007    0.84541926    -0.17320000
opls_145-69    C    0.18771997    0.54849998    0.58984986    -0.17430000
opls_145-70    C    0.23088992    0.57477002    0.59018130    -0.12990000
opls_700-71    C    0.24878007    0.61492991    0.74764023    0.07030000
opls_145-72    C    0.22245010    0.62682995    0.91566006    -0.15220000
opls_145-73    C    0.17965011    0.60184999    0.89705099    -0.16290000
opls_700-74    C    0.71583003    0.35928000    0.16098867    -0.02630000
opls_700-75    C    0.29459995    0.64347005    0.77032861    -0.01450000
opls_166-76    C    0.69844015    0.31536009    0.21149008    0.18690000
opls_145-77    C    0.37952998    0.69361011    0.90609915    -0.17920000
opls_182-78    C    0.72568009    0.26501008    0.27169972    -0.04400000
opls_246-79    C    0.76498989    0.26227988    0.16766006    0.09710000
opls_245-80    C    0.80690021    0.23554011    0.43475071    -0.05480000
opls_136-81    C    0.83444014    0.28228014    0.39877054    -0.15870000
opls_136-82    C    0.80656998    0.29954004    0.28101133    -0.18790000
opls_465-83    C    0.73470011    0.18493000    0.26501133    0.59240000
opls_468-84    C    0.71498011    0.10825006    0.36271955    0.43560000
opls_135-85    C    0.66394989    0.08900994    0.29252975    -0.45690000
opls_135-86    C    0.73391995    0.07619998    0.29213881    -0.45700000
opls_135-87    C    0.71756996    0.11111984    0.68856941    -0.45100000
opls_182-88    C    0.28129004    0.73329017    0.73920113    -0.04190000
opls_246-89    C    0.24278998    0.73738995    0.61937110    0.09780000
opls_136-90    C    0.20006000    0.70179000    0.72756941    -0.19450000
opls_136-91    C    0.17373004    0.72139005    0.81381020    -0.16450000
opls_245-92    C    0.20377011    0.76703000    0.89084136    -0.05450000
opls_465-93    C    0.27571999    0.81503004    0.65832011    0.58390000
opls_468-94    C    0.28489999    0.88495012    0.53915864    0.44680000
opls_135-95    C    0.24087022    0.86763022    0.36213881    -0.46950000
opls_135-96    C    0.32909006    0.89931008    0.35994901    -0.46730000
opls_135-97    C    0.29232020    0.92765005    0.69362890    -0.46730000
opls_179-98    O    0.58313997    0.55494007    0.58816997    -0.18870000
opls_179-99    O    0.42372007    0.44561009    0.04096034    -0.21380000
opls_179-100    O    0.43576004    0.01813989    0.99609065    -0.19870000
opls_179-101    O    0.56759017    0.99235019    0.61050992    -0.21560000
opls_179-102    O    0.97450010    0.41653007    0.01932861    -0.19980000
opls_179-103    O    0.03483022    0.58345017    0.63483003    -0.19940000
opls_179-104    O    0.72604013    0.30058008    0.11947875    -0.24320000
opls_467-105    O    0.74498999    0.15300003    0.26869972    -0.32680000
opls_466-106    O    0.69915001    0.17659988    0.21194051    -0.48050000
opls_179-107    O    0.28572023    0.70054018    0.57250992    -0.24440000
opls_467-108    O    0.27687015    0.85157014    0.79741076    -0.33280000
opls_466-109    O    0.30396997    0.81827012    0.46254958    -0.47130000
opls_750-110    N    0.46241013    0.57412997    0.15256091    -0.33720000
opls_750-111    N    0.55025994    0.43317998    0.34116997    -0.32980000
opls_750-112    N    0.44606011    0.89179012    0.80666006    -0.34760000
opls_750-113    N    0.56023987    0.11384986    0.12716997    -0.34760000
opls_750-114    N    0.11765011    0.53606017    0.73218980    -0.33570000
opls_750-115    N    0.89245007    0.46528985    0.96432011    -0.33570000
opls_239-116    N    0.76566012    0.22548010    0.30843059    -0.18400000
opls_239-117    N    0.24440003    0.77564012    0.75609915    -0.21190000
opls_146-118    H    0.48059013    0.42800998    0.18486969    0.11940000
opls_146-119    H    0.52770006    0.57623009    0.39916997    0.11860000
opls_185-120    H    0.59666999    0.60555012    0.22737960    0.07410000
opls_185-121    H    0.62796000    0.58076007    0.16943909    0.07330000
opls_185-122    H    0.63552007    0.61322006    0.56741076    0.07420000
opls_185-123    H    0.37497997    0.40936009    0.40335127    0.07390000
opls_185-124    H    0.36560016    0.44042015    0.07454958    0.07420000
opls_185-125    H    0.39765004    0.46446995    0.47843909    0.07380000
opls_144-126    H    0.59260993    0.49341991    0.49649858    0.12280000
opls_144-127    H    0.41944995    0.51482991    0.99696884    0.12280000
opls_146-128    H    0.52587997    0.35561000    0.16343909    0.11730000
opls_146-129    H    0.56697991    0.32123005    0.14309915    0.12180000
opls_146-130    H    0.67286996    0.43280999    0.56220113    0.12170000
opls_146-131    H    0.63243003    0.46719999    0.56849858    0.12150000
opls_146-132    H    0.48758998    0.64988003    0.88671105    0.11730000
opls_146-133    H    0.44588014    0.68238012    0.77271105    0.11820000
opls_146-134    H    0.33879997    0.57332998    0.22392918    0.11830000
opls_146-135    H    0.38010003    0.54036009    0.29900000    0.11860000
opls_146-136    H    0.70254003    0.40906006    0.12481020    0.12270000
opls_146-137    H    0.57446002    0.06210988    0.78958074    0.11880000
opls_146-138    H    0.42891014    0.94863999    0.82162040    0.11550000
opls_185-139    H    0.39752006    0.02617991    0.62169972    0.07380000
opls_185-140    H    0.45214003    0.06279988    0.56030878    0.07330000
opls_185-141    H    0.42456988    0.06728993    0.95654108    0.07420000
opls_185-142    H    0.57776007    0.94240997    0.63845042    0.07410000
opls_185-143    H    0.55137995    0.94724003    0.04198017    0.07670000
opls_185-144    H    0.60590011    0.98315005    0.97405099    0.07380000
opls_144-145    H    0.50013996    0.09878986    0.02460057    0.10300000
opls_144-146    H    0.50131020    0.91212019    0.52215014    0.11730000
opls_146-147    H    0.62582993    0.15543994    0.55475071    0.12170000
opls_146-148    H    0.66089996    0.22874994    0.69056941    0.24880000
opls_146-149    H    0.57686993    0.24438012    0.98864873    0.12230000
opls_146-150    H    0.53449998    0.16933994    0.93166006    0.12270000
opls_146-151    H    0.37652013    0.84268013    0.13037110    0.11910000
opls_146-152    H    0.34358011    0.76844014    0.19237960    0.24890000
opls_146-153    H    0.43496010    0.76501011    0.49875071    0.11870000
opls_146-154    H    0.47492006    0.84124994    0.50969972    0.12220000
opls_146-155    H    0.60098993    0.29435002    0.48279037    0.12170000
opls_146-156    H    0.30535998    0.59286000    0.85594051    0.09930000
opls_146-157    H    0.95976995    0.53121992    0.80564023    0.11690000
opls_146-158    H    0.04964989    0.46879994    0.84854108    0.11730000
opls_185-159    H    0.95585994    0.36711987    0.64860907    0.07390000
opls_185-160    H    0.92901006    0.39578000    0.58649858    0.07670000
opls_185-161    H    0.91757998    0.36209001    0.98477054    0.07420000
opls_185-162    H    0.09150999    0.63807013    0.67209915    0.07420000
opls_185-163    H    0.08006019    0.60432999    0.07028045    0.07800000
opls_185-164    H    0.05294014    0.63270993    0.00645042    0.07390000
opls_144-165    H    0.90445016    0.41868005    0.09162040    0.10120000
opls_144-166    H    0.10522013    0.58159008    0.57235127    0.10090000
opls_146-167    H    0.84005995    0.48679003    0.27241926    0.11940000
opls_146-168    H    0.76575015    0.44204012    0.37084136    0.12150000
opls_146-169    H    0.77055989    0.34747987    0.71032011    0.24290000
opls_146-170    H    0.84499006    0.38849010    0.68764023    0.12180000
opls_146-171    H    0.17447005    0.51782997    0.46830028    0.11900000
opls_146-172    H    0.24999996    0.56387009    0.46139943    0.12380000
opls_146-173    H    0.23539022    0.65470006    0.08062890    0.10840000
opls_146-174    H    0.16037025    0.61217016    0.03262040    0.11870000
opls_146-175    H    0.41174999    0.71268994    0.98235977    0.11740000
opls_185-176    H    0.69975016    0.23778008    0.14945042    0.09560000
opls_185-177    H    0.72255008    0.26565986    0.56964023    0.11130000
opls_140-178    H    0.76607000    0.26040016    0.87020113    0.10910000
opls_140-179    H    0.81959012    0.21879005    0.27515014    0.05570000
opls_140-180    H    0.80511990    0.22535987    0.72390085    0.11680000
opls_140-181    H    0.86014992    0.28941006    0.20381870    0.10420000
opls_140-182    H    0.85076012    0.29752997    0.65624929    0.11630000
opls_140-183    H    0.82204006    0.32336018    0.06294051    0.10800000
opls_140-184    H    0.80190010    0.31613000    0.51084986    0.11770000
opls_140-185    H    0.64614982    0.05618984    0.38862040    0.11310000
opls_140-186    H    0.65046989    0.08701994    0.01388102    0.11880000
opls_140-187    H    0.65108996    0.10636014    0.44124929    0.17010000
opls_140-188    H    0.74071006    0.06841995    0.01222946    0.12850000
opls_140-189    H    0.71254990    0.04461994    0.40533994    0.10580000
opls_140-190    H    0.76512004    0.08788003    0.42096034    0.11010000
opls_140-191    H    0.70585003    0.13228997    0.76762040    0.11450000
opls_140-192    H    0.75156996    0.12497005    0.76852975    0.08530000
opls_140-193    H    0.69635006    0.07834986    0.78213031    0.10730000
opls_185-194    H    0.30769021    0.76231011    0.65915864    0.09020000
opls_185-195    H    0.28201992    0.73002996    0.03460057    0.11170000
opls_140-196    H    0.24199008    0.73942020    0.32311898    0.10930000
opls_140-197    H    0.18441019    0.67643006    0.52258074    0.10610000
opls_140-198    H    0.20275009    0.68657987    0.97579887    0.11970000
opls_140-199    H    0.15172020    0.70402002    0.03892918    0.13060000
opls_140-200    H    0.15315989    0.71917992    0.58392068    0.13050000
opls_140-201    H    0.20472004    0.77255004    0.18981020    0.10710000
opls_140-202    H    0.19335012    0.78693002    0.75226912    0.10340000
opls_140-203    H    0.22815988    0.83791997    0.22081020    0.12160000
opls_140-204    H    0.23370015    0.88881021    0.21307932    0.11990000
opls_140-205    H    0.21854007    0.85909999    0.59932861    0.17330000
opls_140-206    H    0.33262012    0.87967016    0.15341076    0.12020000
opls_140-207    H    0.34970000    0.89980016    0.58664873    0.13660000
opls_140-208    H    0.34758002    0.93187021    0.26967139    0.13270000
opls_140-209    H    0.29781003    0.94809018    0.44658924    0.17370000
opls_140-210    H    0.32091016    0.94644020    0.85118980    0.12940000
opls_140-211    H    0.26622020    0.92927004    0.81658074    0.12860000
