#======================================================================
# Crystal Data Generated By AuToFF
#----------------------------------------------------------------------

data_AuToFF_phase_1

_cell_length_a                         28.4500
_cell_length_b                         28.4500
_cell_length_c                         3.4000
_cell_angle_alpha                      90.00
_cell_angle_beta                       90.00
_cell_angle_gamma                      120.00
_symmetry_space_group_name_H-M_alt     'P 1'
_symmetry_space_group_IT_number        1

loop_
_space_group_symop_operation_xyz
   'x, y, z'

loop_
   _atom_site_label
   _atom_site_type_symbol
   _atom_site_fract_x
   _atom_site_fract_y
   _atom_site_fract_z
   _atom_site_charge
opls_520-0    N    0.29894988    0.61624000    0.52227059    -0.31170000
opls_750-1    N    0.48881978    0.51641988    0.03725000    -0.13690000
opls_750-2    N    0.48353990    0.97426012    0.07852059    -0.13690000
opls_750-3    N    0.02592018    0.50999009    0.07802059    -0.15750000
opls_520-4    N    0.70105012    0.38376000    0.47772941    -0.31170000
opls_750-5    N    0.51118022    0.48358012    0.96275000    -0.13690000
opls_750-6    N    0.51646010    0.02573988    0.92147941    -0.13690000
opls_750-7    N    0.97407982    0.49000991    0.92197941    -0.15750000
opls_700-8    C    0.37487997    0.60015009    0.39652059    0.03630000
opls_523-9    C    0.42819992    0.62119000    0.25412941    -0.12350000
opls_145-10    C    0.44893989    0.58715007    0.18040000    -0.13730000
opls_700-11    C    0.41676983    0.53107992    0.23675882    0.05490000
opls_145-12    C    0.36290006    0.50927007    0.36205000    -0.12560000
opls_523-13    C    0.34211002    0.54363023    0.44162059    -0.13660000
opls_521-14    C    0.35344991    0.63644990    0.50392941    0.17850000
opls_142-15    C    0.56057014    0.50435012    0.83927941    0.03250000
opls_522-16    C    0.38825007    0.69187026    0.57302941    -0.21460000
opls_700-17    C    0.40214008    0.78553008    0.62870000    0.06530000
opls_145-18    C    0.37969986    0.81689004    0.49432941    -0.11610000
opls_145-19    C    0.41300015    0.87099010    0.39397059    -0.13040000
opls_700-20    C    0.46953013    0.89467993    0.41422059    0.05560000
opls_145-21    C    0.49231026    0.86486025    0.56617059    -0.12440000
opls_145-22    C    0.45884996    0.81098991    0.67955000    -0.13220000
opls_700-23    C    0.36714989    0.72566991    0.66035882    0.06960000
opls_142-24    C    0.49532004    0.05046996    0.73829118    0.02390000
opls_522-25    C    0.31112000    0.70206003    0.71357941    -0.20990000
opls_700-26    C    0.21754005    0.62477992    0.56825882    0.03490000
opls_523-27    C    0.18331000    0.56830998    0.54372059    -0.12280000
opls_145-28    C    0.12889977    0.54639989    0.44050882    -0.12310000
opls_700-29    C    0.10771985    0.58062002    0.36157941    0.05780000
opls_145-30    C    0.14082990    0.63671007    0.40272941    -0.13170000
opls_523-31    C    0.19541017    0.65875003    0.49915882    -0.12470000
opls_521-32    C    0.27675000    0.64741002    0.61817059    0.19100000
opls_142-33    C    0.94791022    0.44135014    0.78225882    0.02390000
opls_700-34    C    0.62512003    0.39984991    0.60347941    0.03630000
opls_523-35    C    0.57180008    0.37881000    0.74587059    -0.12350000
opls_145-36    C    0.55106011    0.41284993    0.81960000    -0.13720000
opls_700-37    C    0.58323017    0.46892008    0.76324118    0.05490000
opls_145-38    C    0.63709994    0.49072993    0.63795000    -0.12550000
opls_523-39    C    0.65789018    0.45637017    0.55837941    -0.13660000
opls_521-40    C    0.64655009    0.36355010    0.49607059    0.17850000
opls_142-41    C    0.43942986    0.49564988    0.16072059    0.03250000
opls_522-42    C    0.61175014    0.30813015    0.42697059    -0.21460000
opls_700-43    C    0.59785992    0.21446992    0.37130000    0.06530000
opls_145-44    C    0.62030014    0.18310996    0.50567059    -0.11610000
opls_145-45    C    0.58699985    0.12900990    0.60602941    -0.13040000
opls_700-46    C    0.53046987    0.10532007    0.58577941    0.05560000
opls_145-47    C    0.50768010    0.13514016    0.43382941    -0.12440000
opls_145-48    C    0.54115004    0.18901009    0.32045000    -0.13200000
opls_700-49    C    0.63285011    0.27433009    0.33964118    0.06960000
opls_142-50    C    0.50467996    0.94953004    0.26170882    0.02390000
opls_522-51    C    0.68888000    0.29793997    0.28642059    -0.19210000
opls_700-52    C    0.78245995    0.37522008    0.43174118    0.03490000
opls_523-53    C    0.81669000    0.43169002    0.45627941    -0.12280000
opls_145-54    C    0.87110023    0.45360011    0.55949118    -0.12300000
opls_700-55    C    0.89228015    0.41937998    0.63842059    0.05780000
opls_145-56    C    0.85917010    0.36328993    0.59727059    -0.13170000
opls_523-57    C    0.80458983    0.34124997    0.50084118    -0.12470000
opls_521-58    C    0.72325000    0.35258998    0.38182941    0.19100000
opls_142-59    C    0.05208978    0.55864986    0.21774118    0.02370000
opls_526-60    H    0.45417007    0.66363996    0.18800882    0.10880000
opls_526-61    H    0.30088020    0.52631013    0.54822941    0.11260000
opls_146-62    H    0.49020001    0.60471004    0.07355882    0.10790000
opls_146-63    H    0.33736000    0.46596007    0.40450882    0.11230000
opls_525-64    H    0.43131995    0.70907997    0.54630882    0.10220000
opls_144-65    H    0.58498010    0.54766986    0.79099118    0.10160000
opls_146-66    H    0.33672990    0.79922008    0.43984118    0.11160000
opls_146-67    H    0.47769003    0.78938990    0.80172059    0.11510000
opls_146-68    H    0.39466006    0.89359991    0.27982941    0.11050000
opls_146-69    H    0.53591005    0.88307002    0.59287059    0.11090000
opls_525-70    H    0.29454000    0.72663994    0.81557941    0.11060000
opls_144-71    H    0.45170010    0.03118016    0.70574118    0.09110000
opls_526-72    H    0.19914983    0.54125995    0.59464118    0.11260000
opls_526-73    H    0.22020003    0.70240989    0.49865882    0.11800000
opls_146-74    H    0.10342993    0.50280010    0.41534118    0.11050000
opls_146-75    H    0.12512989    0.66362007    0.34040000    0.11050000
opls_144-76    H    0.96602015    0.41574013    0.79154118    0.10630000
opls_526-77    H    0.54582993    0.33636004    0.81199118    0.10880000
opls_526-78    H    0.69911980    0.47368987    0.45177059    0.11260000
opls_146-79    H    0.50979999    0.39528996    0.92644118    0.10790000
opls_146-80    H    0.66264000    0.53403993    0.59549118    0.11230000
opls_525-81    H    0.56868005    0.29092003    0.45369118    0.10220000
opls_144-82    H    0.41501990    0.45233014    0.20900882    0.10160000
opls_146-83    H    0.66327010    0.20077992    0.56015882    0.11160000
opls_146-84    H    0.52230997    0.21061010    0.19827941    0.11510000
opls_146-85    H    0.60533994    0.10640009    0.72017059    0.11050000
opls_146-86    H    0.46408995    0.11692998    0.40712941    0.11260000
opls_525-87    H    0.70546015    0.27337021    0.18442059    0.11590000
opls_144-88    H    0.54830010    0.96882024    0.29425882    0.09110000
opls_526-89    H    0.80085017    0.45874005    0.40535882    0.11260000
opls_526-90    H    0.77979997    0.29759011    0.50134118    0.11800000
opls_146-91    H    0.89657007    0.49719990    0.58465882    0.11050000
opls_146-92    H    0.87487011    0.33637993    0.65960000    0.11050000
opls_144-93    H    0.03398000    0.58427001    0.20845882    0.11840000
