#======================================================================
# Crystal Data Generated By AuToFF
#----------------------------------------------------------------------

data_AuToFF_phase_1

_cell_length_a                         38.0894
_cell_length_b                         38.0958
_cell_length_c                         6.7938
_cell_angle_alpha                      89.78
_cell_angle_beta                       89.82
_cell_angle_gamma                      58.80
_symmetry_space_group_name_H-M_alt     'P 1'
_symmetry_space_group_IT_number        1

loop_
_space_group_symop_operation_xyz
   'x, y, z'

loop_
   _atom_site_label
   _atom_site_type_symbol
   _atom_site_fract_x
   _atom_site_fract_y
   _atom_site_fract_z
   _atom_site_charge
opls_531-0    C    0.70999992    0.78249999    0.95332026    0.39380000
opls_531-1    C    0.77197996    0.77927005    0.95206028    0.39500000
opls_531-2    C    0.71168978    0.84198999    0.94942992    0.39450000
opls_700-3    C    0.68615000    0.76187997    0.95458025    -0.00460000
opls_523-4    C    0.70585969    0.71873013    0.95773020    -0.12310000
opls_523-5    C    0.64286978    0.78516010    0.95222072    -0.11900000
opls_145-6    C    0.68335991    0.69931002    0.95623029    -0.12320000
opls_145-7    C    0.62027982    0.76585991    0.95255044    -0.12130000
opls_700-8    C    0.63988985    0.72247001    0.95301115    0.11900000
opls_142-9    C    0.61344988    0.70521008    0.95325108    -0.09360000
opls_700-10    C    0.62310986    0.66526991    0.93351085    -0.00510000
opls_700-11    C    0.59231986    0.65276017    0.93854048    0.07430000
opls_145-12    C    0.54952986    0.68104001    0.93250110    -0.12330000
opls_145-13    C    0.60551979    0.61059018    0.94907076    -0.12290000
opls_145-14    C    0.52162983    0.66781009    0.93735115    -0.12330000
opls_145-15    C    0.57766970    0.59734014    0.95368089    -0.12340000
opls_700-16    C    0.53485986    0.62561018    0.94760029    0.07510000
opls_700-17    C    0.50437983    0.61269989    0.95160103    -0.00460000
opls_142-18    C    0.51503976    0.57227009    0.94506119    -0.09350000
opls_700-19    C    0.48967001    0.55385994    0.94753111    0.13760000
opls_145-20    C    0.51048006    0.51038989    0.94865126    -0.17190000
opls_145-21    C    0.44620981    0.57593000    0.94741041    -0.12310000
opls_523-22    C    0.48907983    0.48987001    0.94974050    -0.11950000
opls_523-23    C    0.42486993    0.55533995    0.94832007    -0.13170000
opls_700-24    C    0.44580981    0.51210995    0.94931069    0.00040000
opls_531-25    C    0.42266976    0.49082007    0.94875135    0.39240000
opls_531-26    C    0.42131993    0.43118010    0.94683046    0.39540000
opls_531-27    C    0.36081997    0.49371006    0.94705126    0.39610000
opls_423-28    C    0.66492975    0.63194015    0.90256030    0.25910000
opls_423-29    C    0.46196995    0.64578994    0.96408017    0.26070000
opls_700-30    C    0.81725986    0.75579997    0.95214124    0.00020000
opls_523-31    C    0.83856989    0.77697995    0.95670132    -0.13180000
opls_523-32    C    0.84009988    0.71255992    0.94852026    -0.11570000
opls_145-33    C    0.88123977    0.75599011    0.95745054    -0.12310000
opls_145-34    C    0.88280980    0.69147014    0.94962127    -0.14690000
opls_700-35    C    0.90443995    0.71258010    0.95314069    0.13750000
opls_142-36    C    0.94918995    0.68775990    0.95513075    -0.09350000
opls_700-37    C    0.97787000    0.69912991    0.93483118    -0.00480000
opls_700-38    C    0.02252994    0.66932989    0.93832999    0.07490000
opls_423-39    C    0.96630974    0.74143006    0.90455037    0.26070000
opls_145-40    C    0.03918989    0.62647017    0.92891103    -0.12290000
opls_145-41    C    0.05046994    0.68320004    0.95078999    -0.12720000
opls_145-42    C    0.08135988    0.59910007    0.93642088    -0.12340000
opls_145-43    C    0.09270002    0.65577998    0.95818062    -0.12720000
opls_700-44    C    0.10928982    0.61291016    0.95262992    0.07370000
opls_700-45    C    0.15371995    0.58246997    0.96513114    -0.00490000
opls_142-46    C    0.18359990    0.59219008    0.94381004    -0.09360000
opls_423-47    C    0.16355006    0.54105987    0.00705944    0.26110000
opls_700-48    C    0.22824982    0.56552010    0.94719992    0.11900000
opls_145-49    C    0.25183978    0.58457009    0.94870130    -0.12130000
opls_145-50    C    0.24954979    0.52209008    0.94301077    -0.12340000
opls_523-51    C    0.29453982    0.56147019    0.94924004    -0.13180000
opls_523-52    C    0.29226998    0.49906989    0.94257066    -0.12310000
opls_700-53    C    0.31551987    0.51822995    0.94650075    0.00200000
opls_700-54    C    0.44319983    0.38590010    0.94610038    -0.00460000
opls_523-55    C    0.42106980    0.36555004    0.94700121    -0.11570000
opls_523-56    C    0.48645993    0.36204018    0.94412062    -0.12310000
opls_145-57    C    0.44159979    0.32290006    0.94632117    -0.15280000
opls_145-58    C    0.50710980    0.31934011    0.94356128    -0.12330000
opls_700-59    C    0.48508988    0.29866989    0.94515098    0.11900000
opls_142-60    C    0.50331975    0.25424014    0.94523046    -0.09350000
opls_700-61    C    0.54359986    0.22271002    0.95353075    -0.00470000
opls_700-62    C    0.55597994    0.17900003    0.95456111    0.07470000
opls_423-63    C    0.57710001    0.23024004    0.96391089    0.25480000
opls_145-64    C    0.52728987    0.16598011    0.95308034    -0.12320000
opls_145-65    C    0.59807995    0.14811002    0.95848090    -0.12330000
opls_145-66    C    0.54001972    0.12453014    0.95620086    -0.12310000
opls_145-67    C    0.61081988    0.10664015    0.96152046    -0.12330000
opls_700-68    C    0.58209987    0.09366005    0.96074033    0.07430000
opls_700-69    C    0.59421975    0.05003019    0.96507079    -0.00430000
opls_142-70    C    0.63413995    0.01836994    0.94360102    -0.09350000
opls_423-71    C    0.56079988    0.04282011    0.99429033    0.26110000
opls_700-72    C    0.65142988    0.97408015    0.94365990    0.13750000
opls_145-73    C    0.69481004    0.94881988    0.94619017    -0.11490000
opls_145-74    C    0.62822979    0.95466991    0.93928087    -0.12330000
opls_523-75    C    0.71406980    0.90628012    0.94823028    -0.12110000
opls_523-76    C    0.64761988    0.91204010    0.94100010    -0.11900000
opls_700-77    C    0.69075994    0.88715995    0.94655080    0.00070000
opls_531-78    C    0.73796986    0.79531005    0.45247095    0.39610000
opls_531-79    C    0.79999005    0.79203994    0.45281980    0.39550000
opls_531-80    C    0.73970987    0.85475986    0.44968015    0.39550000
opls_700-81    C    0.71434008    0.77450995    0.45416957    0.00070000
opls_523-82    C    0.73455986    0.73135015    0.46149985    -0.13180000
opls_523-83    C    0.67107991    0.79744992    0.45034988    -0.11950000
opls_145-84    C    0.71246995    0.71150993    0.46333978    -0.12340000
opls_145-85    C    0.64893986    0.77769005    0.45286102    -0.12650000
opls_700-86    C    0.66903993    0.73428989    0.45749028    0.13750000
opls_142-87    C    0.64313007    0.71644991    0.45945974    -0.09350000
opls_700-88    C    0.65318982    0.67662010    0.43039033    -0.00420000
opls_700-89    C    0.62263992    0.66380000    0.43446025    0.07630000
opls_145-90    C    0.57985004    0.69214994    0.43044038    -0.12320000
opls_145-91    C    0.63587990    0.62160002    0.44146965    -0.12340000
opls_145-92    C    0.55196999    0.67891989    0.43441021    -0.12320000
opls_145-93    C    0.60796990    0.60840997    0.44693056    -0.12320000
opls_700-94    C    0.56515975    0.63672013    0.44326100    0.07370000
opls_700-95    C    0.53447005    0.62410993    0.44791087    -0.00450000
opls_142-96    C    0.54461987    0.58382011    0.44410001    -0.09360000
opls_700-97    C    0.51871991    0.56596994    0.44674068    0.11900000
opls_145-98    C    0.53904985    0.52250015    0.44795061    -0.15330000
opls_145-99    C    0.47524991    0.58844992    0.44679072    -0.12320000
opls_523-100    C    0.51717979    0.50246011    0.44930039    -0.11570000
opls_523-101    C    0.45346999    0.56827003    0.44796092    -0.12310000
opls_700-102    C    0.47389987    0.52505988    0.44913994    -0.00470000
opls_531-103    C    0.45057997    0.50388997    0.44917969    0.38630000
opls_531-104    C    0.44936001    0.44413997    0.44701004    0.39240000
opls_531-105    C    0.38882992    0.50664016    0.44892062    0.39460000
opls_423-106    C    0.69484986    0.64420993    0.38793065    0.26070000
opls_423-107    C    0.49221000    0.65765986    0.45785974    0.25380000
opls_700-108    C    0.84529995    0.76744010    0.45310094    -0.00110000
opls_523-109    C    0.86852002    0.78662992    0.45649083    -0.11900000
opls_523-110    C    0.86632000    0.72420005    0.45002017    -0.12310000
opls_145-111    C    0.91123991    0.76365998    0.45507040    -0.12340000
opls_145-112    C    0.90902987    0.70113995    0.44959036    -0.15330000
opls_700-113    C    0.93257981    0.72024003    0.45042053    0.11910000
opls_142-114    C    0.97724980    0.69363009    0.45288015    -0.09350000
opls_700-115    C    0.00704993    0.70343003    0.43036972    -0.00480000
opls_700-116    C    0.05151006    0.67304990    0.44246026    0.07370000
opls_423-117    C    0.99712005    0.74483996    0.38763038    0.26110000
opls_145-118    C    0.06813978    0.63018012    0.43686099    -0.12320000
opls_145-119    C    0.07939986    0.68691997    0.45843968    -0.12340000
opls_145-120    C    0.11036989    0.60279988    0.44438998    -0.12720000
opls_145-121    C    0.12157996    0.65957986    0.46609967    -0.12340000
opls_700-122    C    0.13827981    0.61669998    0.45707077    0.07490000
opls_700-123    C    0.18292979    0.58689005    0.46129967    -0.00420000
opls_142-124    C    0.21165980    0.59822012    0.44221003    -0.09350000
opls_423-125    C    0.19443994    0.54459999    0.49106972    0.26110000
opls_700-126    C    0.25640975    0.57334011    0.44524960    0.13760000
opls_145-127    C    0.27806988    0.59440988    0.44931069    -0.16000000
opls_145-128    C    0.27955000    0.52993006    0.44159035    -0.12310000
opls_523-129    C    0.32077999    0.57325012    0.45155982    -0.13630000
opls_523-130    C    0.32222998    0.50886998    0.44338023    -0.13180000
opls_700-131    C    0.34355983    0.53001005    0.44853056    0.00030000
opls_700-132    C    0.47043995    0.39893993    0.44541004    0.00030000
opls_523-133    C    0.44716004    0.37976995    0.44670093    -0.11570000
opls_523-134    C    0.51358982    0.37404001    0.44221003    -0.12310000
opls_145-135    C    0.46642997    0.33723011    0.44609008    -0.13060000
opls_145-136    C    0.53298995    0.33140988    0.44170074    -0.12340000
opls_700-137    C    0.50982979    0.31195013    0.44480065    0.12010000
opls_142-138    C    0.52702991    0.26766989    0.44592080    -0.09350000
opls_700-139    C    0.56707992    0.23579006    0.45788034    -0.00530000
opls_700-140    C    0.57902982    0.19221008    0.45742993    0.07490000
opls_423-141    C    0.60090004    0.24276993    0.47254973    0.25400000
opls_145-142    C    0.55029012    0.17925987    0.45473038    -0.12330000
opls_145-143    C    0.62110992    0.16124996    0.46047979    -0.12290000
opls_145-144    C    0.56296986    0.13779993    0.45475982    -0.12330000
opls_145-145    C    0.63378983    0.11982008    0.46052984    -0.12340000
opls_700-146    C    0.60505999    0.10686007    0.45725035    0.07510000
opls_700-147    C    0.61745985    0.06314005    0.45753002    -0.00480000
opls_142-148    C    0.65765995    0.03171015    0.44192006    -0.09350000
opls_423-149    C    0.58413003    0.05551998    0.47773097    0.26120000
opls_700-150    C    0.67597001    0.98724993    0.44328014    0.11900000
opls_145-151    C    0.71946001    0.96306007    0.44585015    -0.12130000
opls_145-152    C    0.65397990    0.96656995    0.44140047    -0.12330000
opls_523-153    C    0.74002011    0.92040987    0.44839072    -0.13630000
opls_523-154    C    0.67466004    0.92386996    0.44350093    -0.12300000
opls_700-155    C    0.71791006    0.90003997    0.44740011    -0.00460000
opls_520-156    N    0.75301981    0.82050017    0.95026009    -0.38650000
opls_520-157    N    0.68923995    0.82390011    0.95100048    -0.39180000
opls_520-158    N    0.75136977    0.75923999    0.95367058    -0.39190000
opls_520-159    N    0.38133990    0.51379003    0.94845991    -0.38950000
opls_520-160    N    0.44360978    0.44944005    0.94798005    -0.39060000
opls_520-161    N    0.37990986    0.45241015    0.94625052    -0.39270000
opls_753-162    N    0.42864992    0.67283005    0.97583069    -0.31560000
opls_753-163    N    0.69724989    0.60440999    0.87105041    -0.31560000
opls_753-164    N    0.95865974    0.77439009    0.87415032    -0.31560000
opls_753-165    N    0.16911011    0.50919996    0.04718020    -0.31550000
opls_753-166    N    0.60474996    0.23460006    0.97396132    -0.31550000
opls_753-167    N    0.53331993    0.03864989    0.02049975    -0.31560000
opls_520-168    N    0.78109975    0.83333010    0.45123010    -0.39060000
opls_520-169    N    0.71724990    0.83668012    0.45009082    -0.38940000
opls_520-170    N    0.77928997    0.77213003    0.45358963    -0.39050000
opls_520-171    N    0.40919981    0.52689006    0.44990977    -0.39250000
opls_520-172    N    0.47160977    0.46247008    0.44781078    -0.39200000
opls_520-173    N    0.40801987    0.46540011    0.44752081    -0.38540000
opls_753-174    N    0.45930985    0.68552015    0.46816039    -0.31560000
opls_753-175    N    0.72728977    0.61787008    0.34765093    -0.31560000
opls_753-176    N    0.99149002    0.77668988    0.34670005    -0.31560000
opls_753-177    N    0.20205988    0.51163013    0.52093103    -0.31560000
opls_753-178    N    0.62873009    0.24679991    0.48567063    -0.31240000
opls_753-179    N    0.55663007    0.05111990    0.49719006    -0.31560000
opls_526-180    H    0.73962983    0.70015001    0.96123049    0.10720000
opls_526-181    H    0.62699997    0.81890004    0.95027040    0.08450000
opls_146-182    H    0.70003975    0.66565016    0.95989102    0.08980000
opls_146-183    H    0.58649973    0.78474015    0.95077086    0.10280000
opls_144-184    H    0.58060971    0.72846014    0.97278082    0.12660000
opls_146-185    H    0.53727993    0.71425009    0.92188103    0.08400000
opls_146-186    H    0.63848970    0.58745012    0.95569009    0.10900000
opls_146-187    H    0.48865994    0.69091992    0.93102032    0.07120000
opls_146-188    H    0.59001981    0.56411013    0.96370041    0.06730000
opls_144-189    H    0.54817998    0.54931994    0.93662107    0.10580000
opls_146-190    H    0.54428983    0.49244011    0.94881023    0.14700000
opls_146-191    H    0.42864977    0.60961003    0.94559992    0.08600000
opls_526-192    H    0.50585987    0.45609015    0.95061041    0.08270000
opls_526-193    H    0.39105985    0.57292992    0.94782991    0.11130000
opls_526-194    H    0.82090997    0.81077004    0.96072119    0.11160000
opls_526-195    H    0.82401987    0.69548000    0.94505089    0.08100000
opls_146-196    H    0.89648985    0.77375011    0.96424061    0.10250000
opls_146-197    H    0.90010981    0.65766017    0.94661114    0.10180000
opls_144-198    H    0.96117967    0.65467018    0.97463106    0.12620000
opls_146-199    H    0.01917003    0.61373988    0.91407089    0.07770000
opls_146-200    H    0.03892978    0.71627012    0.95824097    0.10650000
opls_146-201    H    0.09287993    0.56604012    0.92782032    0.08510000
opls_146-202    H    0.11282971    0.66843012    0.97198009    0.08280000
opls_144-203    H    0.17295985    0.62485012    0.91819086    0.13710000
opls_146-204    H    0.23616984    0.61832992    0.95081060    0.09350000
opls_146-205    H    0.23273983    0.50586991    0.93647093    0.08690000
opls_526-206    H    0.31221969    0.57694016    0.95157012    0.08270000
opls_526-207    H    0.30823006    0.46532990    0.93842125    0.11050000
opls_526-208    H    0.38727994    0.38368994    0.94823028    0.08440000
opls_526-209    H    0.50413979    0.37752013    0.94278115    0.08440000
opls_146-210    H    0.42360980    0.30772019    0.94719109    0.10180000
opls_146-211    H    0.54079991    0.30201014    0.94110019    0.10250000
opls_144-212    H    0.48017007    0.24512989    0.93889080    0.11090000
opls_146-213    H    0.49406980    0.18835997    0.94989063    0.09140000
opls_146-214    H    0.62159979    0.15665007    0.95976001    0.10020000
opls_146-215    H    0.51654992    0.11594994    0.95426083    0.12060000
opls_146-216    H    0.64402974    0.08420008    0.96650004    0.07320000
opls_144-217    H    0.65746984    0.02704010    0.92468066    0.12690000
opls_146-218    H    0.71367000    0.96304990    0.94816993    0.14690000
opls_146-219    H    0.59457990    0.97292004    0.93255114    0.09390000
opls_526-220    H    0.74780976    0.88718005    0.95133020    0.08440000
opls_526-221    H    0.62905972    0.89751005    0.93769117    0.08100000
opls_526-222    H    0.76833992    0.71321004    0.46681062    0.11160000
opls_526-223    H    0.65491997    0.83118988    0.44556018    0.08100000
opls_146-224    H    0.72937001    0.67786998    0.47269104    0.07290000
opls_146-225    H    0.61514984    0.79618015    0.44954031    0.08370000
opls_144-226    H    0.61038987    0.73915987    0.48624027    0.12660000
opls_146-227    H    0.56761987    0.72538006    0.42134082    0.08250000
opls_146-228    H    0.66886986    0.59847993    0.44581041    0.11740000
opls_146-229    H    0.51899985    0.70209004    0.42944093    0.11740000
opls_146-230    H    0.62027984    0.57517009    0.45480987    0.09140000
opls_144-231    H    0.57769999    0.56055992    0.43749098    0.12620000
opls_146-232    H    0.57285994    0.50416991    0.44796092    0.10180000
opls_146-233    H    0.45799992    0.62212996    0.44495962    0.08580000
opls_526-234    H    0.53364991    0.46869000    0.45028070    0.08270000
opls_526-235    H    0.41966996    0.58628988    0.44762973    0.11050000
opls_526-236    H    0.85252977    0.82037004    0.46095082    0.11050000
opls_526-237    H    0.84868995    0.70867005    0.44801979    0.10730000
opls_146-238    H    0.92802002    0.77991995    0.46122018    0.08600000
opls_146-239    H    0.92473998    0.66738003    0.44711013    0.09350000
opls_144-240    H    0.98797988    0.66095997    0.47897035    0.13800000
opls_146-241    H    0.04804986    0.61749996    0.42294082    0.08400000
opls_146-242    H    0.06784994    0.71998003    0.46682976    0.10890000
opls_146-243    H    0.12194988    0.56971012    0.43700083    0.10020000
opls_146-244    H    0.14157998    0.67234001    0.48077053    0.06730000
opls_144-245    H    0.19973994    0.63131000    0.42298057    0.12680000
opls_146-246    H    0.26082007    0.62821987    0.45173056    0.10280000
opls_146-247    H    0.26426989    0.51219999    0.43448086    0.10250000
opls_526-248    H    0.33691998    0.59027986    0.45531033    0.10720000
opls_526-249    H    0.33984982    0.47507014    0.43980046    0.14690000
opls_526-250    H    0.41341002    0.39886003    0.44842016    0.10730000
opls_526-251    H    0.53218988    0.38855004    0.44001978    0.11160000
opls_146-252    H    0.44753994    0.32301998    0.44757085    0.10180000
opls_146-253    H    0.56664987    0.31320014    0.43797084    0.08690000
opls_144-254    H    0.50342999    0.25916998    0.43689043    0.12660000
opls_146-255    H    0.51706993    0.20173004    0.45308034    0.07310000
opls_146-256    H    0.64465006    0.16973995    0.46294972    0.10900000
opls_146-257    H    0.53943005    0.12929996    0.45202054    0.08510000
opls_146-258    H    0.66698981    0.09738005    0.46432009    0.09140000
opls_144-259    H    0.68068002    0.04091004    0.42852979    0.10580000
opls_146-260    H    0.73742004    0.97826989    0.44689081    0.10180000
opls_146-261    H    0.62028992    0.98389000    0.43672999    0.11460000
opls_526-262    H    0.77380982    0.90230004    0.45109027    0.10730000
opls_526-263    H    0.65701980    0.90834015    0.44171988    0.14280000
