#======================================================================
# Crystal Data Generated By AuToFF
#----------------------------------------------------------------------

data_AuToFF_phase_1

_cell_length_a                         32.5490
_cell_length_b                         32.5490
_cell_length_c                         15.8430
_cell_angle_alpha                      90.00
_cell_angle_beta                       90.00
_cell_angle_gamma                      120.00
_symmetry_space_group_name_H-M_alt     'P 1'
_symmetry_space_group_IT_number        1

loop_
_space_group_symop_operation_xyz
   'x, y, z'

loop_
   _atom_site_label
   _atom_site_type_symbol
   _atom_site_fract_x
   _atom_site_fract_y
   _atom_site_fract_z
   _atom_site_charge
F2_P_3+3-0    P    0.00776004    0.99169016    0.00746008    -0.12080000
F2_P_3+5-1    P    0.33468994    0.66988988    0.46492015    -0.16020000
F2_P_3+3-2    P    0.00831005    0.01607017    0.00746008    -0.12080000
F2_P_3+5-3    P    0.33011000    0.66480017    0.46492015    -0.16020000
F2_P_3+3-4    P    0.98393009    0.99224003    0.00746008    -0.12080000
F2_P_3+5-5    P    0.33520006    0.66530996    0.46492015    -0.16020000
F2_P_3+3-6    P    0.99223996    0.00830984    0.50746008    -0.12080000
F2_P_3+5-7    P    0.66531006    0.33011012    0.96492015    -0.16020000
F2_P_3+3-8    P    0.99169012    0.98393019    0.50746008    -0.12080000
F2_P_3+5-9    P    0.66989018    0.33520019    0.96492015    -0.16020000
F2_P_3+3-10    P    0.01606991    0.00775997    0.50746008    -0.12080000
F2_P_3+5-11    P    0.66479994    0.33469004    0.96492015    -0.16020000
opls_145-12    C    0.03429001    0.95903011    0.05179007    -0.03960000
opls_145-13    C    0.07752000    0.96425994    0.02325002    -0.17190000
opls_145-14    C    0.09482007    0.93689997    0.05869027    -0.20390000
opls_700-15    C    0.07000997    0.90533009    0.12421006    0.05430000
opls_145-16    C    0.02720010    0.89998992    0.15226977    -0.20390000
opls_145-17    C    0.00897998    0.92648003    0.11557975    -0.17190000
opls_142-18    C    0.08996000    0.87846004    0.16625008    0.02350000
opls_145-19    C    0.15158988    0.85238003    0.18495992    0.18200000
opls_145-20    C    0.12575005    0.82410018    0.25368996    -0.17220000
opls_145-21    C    0.14180997    0.79746001    0.29730985    -0.17280000
opls_145-22    C    0.18384994    0.79884001    0.27263018    0.18200000
opls_145-23    C    0.20969000    0.82713016    0.20390015    -0.17470000
opls_145-24    C    0.19364003    0.85376997    0.16027015    -0.17280000
MOF2_C_3-25    C    0.30613996    0.69956003    0.41632014    -0.09370000
opls_145-26    C    0.26445996    0.69660987    0.44813987    -0.14130000
opls_145-27    C    0.24391996    0.71919019    0.40586000    -0.20390000
opls_700-28    C    0.26543999    0.74588996    0.33338004    0.05250000
opls_145-29    C    0.30653004    0.74869006    0.30168971    -0.20390000
opls_145-30    C    0.32673991    0.72516005    0.34258979    -0.14130000
opls_142-31    C    0.24547987    0.77276994    0.29134002    0.02360000
opls_145-32    C    0.04096992    0.07526006    0.05179007    -0.03960000
opls_145-33    C    0.03573992    0.11325992    0.02325002    -0.17190000
opls_145-34    C    0.06309991    0.15792000    0.05869027    -0.20390000
opls_700-35    C    0.09466998    0.16467991    0.12421006    0.05430000
opls_145-36    C    0.10001014    0.12721005    0.15226977    -0.20390000
opls_145-37    C    0.07352009    0.08249995    0.11557975    -0.17190000
opls_142-38    C    0.12154009    0.21150011    0.16625008    0.02350000
opls_145-39    C    0.14762001    0.29921003    0.18495992    0.18200000
opls_145-40    C    0.17590014    0.30165005    0.25368996    -0.17220000
opls_145-41    C    0.20254004    0.34435009    0.29730985    -0.17280000
opls_145-42    C    0.20115992    0.38500993    0.27263018    0.18200000
opls_145-43    C    0.17286990    0.38255997    0.20390015    -0.17470000
opls_145-44    C    0.14623005    0.33986986    0.16027015    -0.17280000
MOF2_C_3-45    C    0.30044024    0.60658019    0.41632014    -0.09370000
opls_145-46    C    0.30339005    0.56784988    0.44813987    -0.14130000
opls_145-47    C    0.28081019    0.52473015    0.40586000    -0.20390000
opls_700-48    C    0.25410999    0.51954998    0.33338004    0.05250000
opls_145-49    C    0.25130995    0.55784004    0.30168971    -0.20390000
opls_145-50    C    0.27483983    0.60157988    0.34258979    -0.14130000
opls_142-51    C    0.22722995    0.47270992    0.29134002    0.02360000
opls_145-52    C    0.92473995    0.96571019    0.05179007    -0.03960000
opls_145-53    C    0.88674008    0.92248014    0.02325002    -0.17190000
opls_145-54    C    0.84208001    0.90518003    0.05869027    -0.20390000
opls_700-55    C    0.83532005    0.92999000    0.12421006    0.05430000
opls_145-56    C    0.87279007    0.97280002    0.15226977    -0.20390000
opls_145-57    C    0.91749993    0.99102002    0.11557975    -0.17190000
opls_142-58    C    0.78849991    0.91003985    0.16625008    0.02350000
opls_145-59    C    0.70079012    0.84840994    0.18495992    0.18200000
opls_145-60    C    0.69834999    0.87425013    0.25368996    -0.17220000
opls_145-61    C    0.65564999    0.85818990    0.29730985    -0.17280000
opls_145-62    C    0.61499014    0.81615006    0.27263018    0.18200000
opls_145-63    C    0.61743980    0.79030987    0.20390015    -0.17470000
opls_145-64    C    0.66013022    0.80636017    0.16027015    -0.17280000
MOF2_C_3-65    C    0.39341998    0.69386014    0.41632014    -0.09370000
opls_145-66    C    0.43214981    0.73553990    0.44813987    -0.14130000
opls_145-67    C    0.47527003    0.75608001    0.40586000    -0.20390000
opls_700-68    C    0.48045002    0.73456006    0.33338004    0.05250000
opls_145-69    C    0.44216000    0.69346991    0.30168971    -0.20390000
opls_145-70    C    0.39841995    0.67326007    0.34258979    -0.14130000
opls_142-71    C    0.52729018    0.75452014    0.29134002    0.02360000
opls_145-72    C    0.96570999    0.04096989    0.55179007    -0.03960000
opls_145-73    C    0.92248000    0.03574006    0.52325002    -0.17190000
opls_145-74    C    0.90517993    0.06310003    0.55869027    -0.20390000
opls_700-75    C    0.92999003    0.09466991    0.62421006    0.05430000
opls_145-76    C    0.97279990    0.10001008    0.65226977    -0.20390000
opls_145-77    C    0.99102002    0.07351997    0.61557975    -0.17190000
opls_142-78    C    0.91004000    0.12153996    0.66625008    0.02350000
opls_145-79    C    0.84841012    0.14761997    0.68495992    0.18200000
opls_145-80    C    0.87425013    0.17590018    0.75368996    -0.17220000
opls_145-81    C    0.85819003    0.20253999    0.79730985    -0.17280000
opls_145-82    C    0.81615006    0.20115999    0.77263018    0.18200000
opls_145-83    C    0.79031000    0.17286984    0.70390015    -0.17470000
opls_145-84    C    0.80635997    0.14623003    0.66027015    -0.17280000
MOF2_C_3-85    C    0.69386004    0.30043997    0.91632014    -0.09370000
opls_145-86    C    0.73554004    0.30339013    0.94813987    -0.14130000
opls_145-87    C    0.75608022    0.28081017    0.90586000    -0.20390000
opls_700-88    C    0.73456001    0.25411004    0.83338004    0.05250000
opls_145-89    C    0.69346996    0.25130994    0.80168971    -0.20390000
opls_145-90    C    0.67326009    0.27483995    0.84258979    -0.14130000
opls_142-91    C    0.75452013    0.22723006    0.79134002    0.02360000
opls_145-92    C    0.95903008    0.92473994    0.55179007    -0.03960000
opls_145-93    C    0.96426008    0.88674008    0.52325002    -0.17190000
opls_145-94    C    0.93690009    0.84208000    0.55869027    -0.20390000
opls_700-95    C    0.90533002    0.83532009    0.62421006    0.05430000
opls_145-96    C    0.89998986    0.87278995    0.65226977    -0.20390000
opls_145-97    C    0.92647991    0.91750005    0.61557975    -0.17190000
opls_142-98    C    0.87845991    0.78849989    0.66625008    0.02350000
opls_145-99    C    0.85237999    0.70078997    0.68495992    0.18200000
opls_145-100    C    0.82409986    0.69834995    0.75368996    -0.17220000
opls_145-101    C    0.79745996    0.65564991    0.79730985    -0.17280000
opls_145-102    C    0.79884008    0.61499007    0.77263018    0.18210000
opls_145-103    C    0.82713010    0.61744003    0.70390015    -0.17470000
opls_145-104    C    0.85376995    0.66013014    0.66027015    -0.17280000
MOF2_C_3-105    C    0.69955994    0.39342017    0.91632014    -0.09370000
opls_145-106    C    0.69660995    0.43215012    0.94813987    -0.14130000
opls_145-107    C    0.71918981    0.47526985    0.90586000    -0.20390000
opls_700-108    C    0.74589001    0.48045002    0.83338004    0.05250000
opls_145-109    C    0.74869005    0.44215996    0.80168971    -0.20390000
opls_145-110    C    0.72516017    0.39842012    0.84258979    -0.14130000
opls_142-111    C    0.77277005    0.52729008    0.79134002    0.02360000
opls_145-112    C    0.07526023    0.03429016    0.55179007    -0.03960000
opls_145-113    C    0.11325992    0.07751986    0.52325002    -0.17180000
opls_145-114    C    0.15791999    0.09481997    0.55869027    -0.20390000
opls_700-115    C    0.16467995    0.07001000    0.62421006    0.05430000
opls_145-116    C    0.12720993    0.02719998    0.65226977    -0.20380000
opls_145-117    C    0.08250007    0.00897998    0.61557975    -0.17190000
opls_142-118    C    0.21150009    0.08996015    0.66625008    0.02350000
opls_145-119    C    0.29920988    0.15159006    0.68495992    0.18200000
opls_145-120    C    0.30165001    0.12574987    0.75368996    -0.17220000
opls_145-121    C    0.34435001    0.14181010    0.79730985    -0.17280000
opls_145-122    C    0.38500986    0.18384994    0.77263018    0.18200000
opls_145-123    C    0.38256020    0.20969013    0.70390015    -0.17470000
opls_145-124    C    0.33986978    0.19363983    0.66027015    -0.17280000
MOF2_C_3-125    C    0.60658002    0.30613986    0.91632014    -0.09370000
opls_145-126    C    0.56785019    0.26446010    0.94813987    -0.14130000
opls_145-127    C    0.52472997    0.24391999    0.90586000    -0.20390000
opls_700-128    C    0.51954998    0.26543994    0.83338004    0.05250000
opls_145-129    C    0.55784000    0.30653009    0.80168971    -0.20390000
opls_145-130    C    0.60158005    0.32673993    0.84258979    -0.14130000
opls_142-131    C    0.47270982    0.24547986    0.79134002    0.02360000
opls_146-132    H    0.09484012    0.98645003    0.97996970    0.23800000
opls_146-133    H    0.12354004    0.93965005    0.03843969    0.23800000
opls_146-134    H    0.01032000    0.87830998    0.19647983    0.23800000
opls_146-135    H    0.97936997    0.92237016    0.13399987    0.23800000
opls_144-136    H    0.07305009    0.85907999    0.21296030    0.11170000
opls_146-137    H    0.09322991    0.82269995    0.27340971    0.11370000
opls_146-138    H    0.12151006    0.77577013    0.35027015    0.11200000
opls_146-139    H    0.24222005    0.82852010    0.18417030    0.11350000
opls_146-140    H    0.21392981    0.87545985    0.10730985    0.11200000
opls_146-141    H    0.25043014    0.67930018    0.49838983    0.23800000
opls_146-142    H    0.21523985    0.71650999    0.42621031    0.23810000
opls_146-143    H    0.32087982    0.76665995    0.25215994    0.23810000
opls_146-144    H    0.35451000    0.72654006    0.32028972    0.23800000
opls_144-145    H    0.26239997    0.79215993    0.24465000    0.11170000
opls_146-146    H    0.01355021    0.10839016    0.97996970    0.23800000
opls_146-147    H    0.06034988    0.18389003    0.03843969    0.23800000
opls_146-148    H    0.12168993    0.13200992    0.19647983    0.23800000
opls_146-149    H    0.07762991    0.05699997    0.13399987    0.23800000
opls_144-150    H    0.14091995    0.21396993    0.21296030    0.11170000
opls_146-151    H    0.17730009    0.27053000    0.27340971    0.11370000
opls_146-152    H    0.22423012    0.34574004    0.35027015    0.11190000
opls_146-153    H    0.17147989    0.41369989    0.18417030    0.11350000
opls_146-154    H    0.12453992    0.33846999    0.10730985    0.11210000
opls_146-155    H    0.32070001    0.57112997    0.49838983    0.23800000
opls_146-156    H    0.28348984    0.49872997    0.42621031    0.23800000
opls_146-157    H    0.23334004    0.55422009    0.25215994    0.23800000
opls_146-158    H    0.27345992    0.62796994    0.32028972    0.23800000
opls_144-159    H    0.20783995    0.47024009    0.24465000    0.11170000
opls_146-160    H    0.89161016    0.90516016    0.97996970    0.23800000
opls_146-161    H    0.81611008    0.87645992    0.03843969    0.23810000
opls_146-162    H    0.86799007    0.98968010    0.19647983    0.23800000
opls_146-163    H    0.94299981    0.02062987    0.13399987    0.23800000
opls_144-164    H    0.78602996    0.92695008    0.21296030    0.11170000
opls_146-165    H    0.72947001    0.90677005    0.27340971    0.11370000
opls_146-166    H    0.65426000    0.87849019    0.35027015    0.11190000
opls_146-167    H    0.58630006    0.75778001    0.18417030    0.11350000
opls_146-168    H    0.66152996    0.78607016    0.10730985    0.11200000
opls_146-169    H    0.42886985    0.74956986    0.49838983    0.23800000
opls_146-170    H    0.50127000    0.78476004    0.42621031    0.23800000
opls_146-171    H    0.44577983    0.67911996    0.25215994    0.23800000
opls_146-172    H    0.37203008    0.64549000    0.32028972    0.23800000
opls_144-173    H    0.52976008    0.73759998    0.24465000    0.11170000
opls_146-174    H    0.90515988    0.01354997    0.47996970    0.23800000
opls_146-175    H    0.87645996    0.06034995    0.53843969    0.23810000
opls_146-176    H    0.98968000    0.12169002    0.69647983    0.23800000
opls_146-177    H    0.02063003    0.07762984    0.63399987    0.23800000
opls_144-178    H    0.92694991    0.14092001    0.71296030    0.11170000
opls_146-179    H    0.90677009    0.17730005    0.77340971    0.11370000
opls_146-180    H    0.87848994    0.22422987    0.85027015    0.11190000
opls_146-181    H    0.75777995    0.17147990    0.68417030    0.11350000
opls_146-182    H    0.78607019    0.12454015    0.60730985    0.11200000
opls_146-183    H    0.74957003    0.32070018    0.99838983    0.23800000
opls_146-184    H    0.78476015    0.28349001    0.92621031    0.23800000
opls_146-185    H    0.67912018    0.23334005    0.75215994    0.23800000
opls_146-186    H    0.64549000    0.27345994    0.82028972    0.23800000
opls_144-187    H    0.73760003    0.20784007    0.74465000    0.11170000
opls_146-188    H    0.98644997    0.89161020    0.47996970    0.23800000
opls_146-189    H    0.93965012    0.81610997    0.53843969    0.23800000
opls_146-190    H    0.87831007    0.86799008    0.69647983    0.23810000
opls_146-191    H    0.92237009    0.94300003    0.63399987    0.23800000
opls_144-192    H    0.85908005    0.78603007    0.71296030    0.11170000
opls_146-193    H    0.82269991    0.72947000    0.77340971    0.11370000
opls_146-194    H    0.77576988    0.65425996    0.85027015    0.11190000
opls_146-195    H    0.82852011    0.58630011    0.68417030    0.11350000
opls_146-196    H    0.87546008    0.66153001    0.60730985    0.11200000
opls_146-197    H    0.67929999    0.42887003    0.99838983    0.23800000
opls_146-198    H    0.71651016    0.50127003    0.92621031    0.23800000
opls_146-199    H    0.76665996    0.44577991    0.75215994    0.23800000
opls_146-200    H    0.72654008    0.37203006    0.82028972    0.23800000
opls_144-201    H    0.79216005    0.52975991    0.74465000    0.11170000
opls_146-202    H    0.10838984    0.09483984    0.47996970    0.23800000
opls_146-203    H    0.18388992    0.12354008    0.53843969    0.23800000
opls_146-204    H    0.13200993    0.01031990    0.69647983    0.23800000
opls_146-205    H    0.05700019    0.97937013    0.63399987    0.23800000
opls_144-206    H    0.21397004    0.07304992    0.71296030    0.11170000
opls_146-207    H    0.27052999    0.09322995    0.77340971    0.11370000
opls_146-208    H    0.34574018    0.12151016    0.85027015    0.11190000
opls_146-209    H    0.41369994    0.24221999    0.68417030    0.11350000
opls_146-210    H    0.33847004    0.21392984    0.60730985    0.11200000
opls_146-211    H    0.57113015    0.25043014    0.99838983    0.23800000
opls_146-212    H    0.49873000    0.21523996    0.92621031    0.23810000
opls_146-213    H    0.55422017    0.32088004    0.75215994    0.23800000
opls_146-214    H    0.62796992    0.35451000    0.82028972    0.23800000
opls_144-215    H    0.47023992    0.26240002    0.74465000    0.11170000
opls_750-216    N    0.13516997    0.87962010    0.14035031    -0.27390000
opls_750-217    N    0.20026985    0.77159995    0.31722969    -0.27390000
opls_750-218    N    0.12038000    0.25555001    0.14035031    -0.27390000
opls_750-219    N    0.22839992    0.42866995    0.31722969    -0.27390000
opls_750-220    N    0.74445003    0.86482990    0.14035031    -0.27390000
opls_750-221    N    0.57132992    0.79973010    0.31722969    -0.27390000
opls_750-222    N    0.86483003    0.12037990    0.64035031    -0.27390000
opls_750-223    N    0.79973015    0.22840005    0.81722969    -0.27380000
opls_750-224    N    0.87962000    0.74444999    0.64035031    -0.27390000
opls_750-225    N    0.77160008    0.57133005    0.81722969    -0.27390000
opls_750-226    N    0.25554997    0.13517010    0.64035031    -0.27390000
opls_750-227    N    0.42867008    0.20026990    0.81722969    -0.27390000
