#======================================================================
# Crystal Data Generated By AuToFF
#----------------------------------------------------------------------

data_AuToFF_phase_1

_cell_length_a                         45.9000
_cell_length_b                         50.1000
_cell_length_c                         3.8800
_cell_angle_alpha                      90.00
_cell_angle_beta                       75.00
_cell_angle_gamma                      90.00
_symmetry_space_group_name_H-M_alt     'P 1'
_symmetry_space_group_IT_number        1

loop_
_space_group_symop_operation_xyz
   'x, y, z'

loop_
   _atom_site_label
   _atom_site_type_symbol
   _atom_site_fract_x
   _atom_site_fract_y
   _atom_site_fract_z
   _atom_site_charge
opls_700-0    C    0.97024992    0.47552994    0.45246932    0.03240000
opls_700-1    C    0.47023990    0.97552994    0.45246932    0.03240000
opls_700-2    C    0.02975989    0.47552994    0.54753068    0.03240000
opls_700-3    C    0.52975989    0.97552994    0.54753068    0.03240000
opls_700-4    C    0.02975989    0.52447006    0.54753068    0.03240000
opls_700-5    C    0.52975989    0.02447006    0.54753068    0.03240000
opls_700-6    C    0.97024992    0.52447006    0.45246932    0.03240000
opls_700-7    C    0.47023990    0.02447006    0.45246932    0.03240000
opls_145-8    C    0.01442998    0.45170998    0.52225979    -0.17130000
opls_145-9    C    0.51442998    0.95170998    0.52225979    -0.17130000
opls_145-10    C    0.98557002    0.45170998    0.47774021    -0.16820000
opls_145-11    C    0.48557002    0.95170998    0.47774021    -0.17130000
opls_145-12    C    0.98557002    0.54829002    0.47774021    -0.16840000
opls_145-13    C    0.48557002    0.04829002    0.47774021    -0.17130000
opls_145-14    C    0.01442998    0.54829002    0.52225979    -0.17130000
opls_145-15    C    0.51442998    0.04829002    0.52225979    -0.17130000
opls_700-16    C    0.94022002    0.47568004    0.41716051    0.03020000
opls_700-17    C    0.44022004    0.97568004    0.41714984    0.03040000
opls_700-18    C    0.05977996    0.47568004    0.58285016    0.03040000
opls_700-19    C    0.55977996    0.97568004    0.58285016    0.03040000
opls_700-20    C    0.05977996    0.52431996    0.58285016    0.03040000
opls_700-21    C    0.55977996    0.02431996    0.58285016    0.03040000
opls_700-22    C    0.94022002    0.52431996    0.41716051    0.03020000
opls_700-23    C    0.44022004    0.02431996    0.41714984    0.03040000
opls_700-24    C    0.92110993    0.45140998    0.45601008    0.06230000
opls_700-25    C    0.42110994    0.95140998    0.45599940    0.06230000
opls_700-26    C    0.07889006    0.45140998    0.54400060    0.06230000
opls_700-27    C    0.57889006    0.95140998    0.54400060    0.06230000
opls_700-28    C    0.07889006    0.54859002    0.54400060    0.06230000
opls_700-29    C    0.57889006    0.04859002    0.54400060    0.06230000
opls_700-30    C    0.92110993    0.54859002    0.45601008    0.06230000
opls_700-31    C    0.42110994    0.04859002    0.45599940    0.06230000
opls_145-32    C    0.89296003    0.45100998    0.70971959    -0.12860000
opls_145-33    C    0.39296001    0.95100998    0.70973027    -0.12870000
opls_145-34    C    0.10703999    0.45100998    0.29026973    -0.12870000
opls_145-35    C    0.60703997    0.95100998    0.29028041    -0.12870000
opls_145-36    C    0.10703999    0.54899002    0.29026973    -0.12860000
opls_145-37    C    0.60703997    0.04899002    0.29028041    -0.12870000
opls_145-38    C    0.89296003    0.54899002    0.70971959    -0.12870000
opls_145-39    C    0.39296001    0.04899002    0.70973027    -0.12870000
opls_145-40    C    0.87586996    0.42760998    0.77005915    -0.16380000
opls_145-41    C    0.37586996    0.92760998    0.77005915    -0.16380000
opls_145-42    C    0.12413004    0.42760998    0.22994085    -0.16380000
opls_145-43    C    0.62413004    0.92760998    0.22994085    -0.16380000
opls_145-44    C    0.12413004    0.57239002    0.22994085    -0.16370000
opls_145-45    C    0.62413004    0.07239002    0.22994085    -0.16380000
opls_145-46    C    0.87586996    0.57239002    0.77005915    -0.16380000
opls_145-47    C    0.37586996    0.07239002    0.77005915    -0.16380000
opls_145-48    C    0.88712996    0.40433992    0.58648964    0.19830000
opls_145-49    C    0.38712996    0.90433992    0.58648964    0.19840000
opls_145-50    C    0.11287004    0.40433992    0.41351036    0.19850000
opls_145-51    C    0.61287004    0.90433992    0.41351036    0.19850000
opls_145-52    C    0.11287004    0.59566008    0.41351036    0.19850000
opls_145-53    C    0.61287004    0.09566008    0.41351036    0.19850000
opls_145-54    C    0.88712996    0.59566008    0.58648964    0.19830000
opls_145-55    C    0.38712996    0.09566008    0.58648964    0.19830000
opls_145-56    C    0.08578992    0.40500998    0.68092929    -0.17620000
opls_145-57    C    0.58578992    0.90500998    0.68092929    -0.17620000
opls_145-58    C    0.91420987    0.40500998    0.31907071    -0.17620000
opls_145-59    C    0.41420987    0.90500998    0.31907071    -0.17620000
opls_145-60    C    0.91420987    0.59499002    0.31907071    -0.17620000
opls_145-61    C    0.41420987    0.09499002    0.31907071    -0.17620000
opls_145-62    C    0.08578992    0.59499002    0.68092929    -0.17620000
opls_145-63    C    0.58578992    0.09499002    0.68092929    -0.17620000
opls_145-64    C    0.06938995    0.42859002    0.75129076    -0.12900000
opls_145-65    C    0.56938995    0.92859002    0.75129076    -0.13490000
opls_145-66    C    0.93062007    0.42859002    0.24870924    -0.12900000
opls_145-67    C    0.43062007    0.92859002    0.24870924    -0.12900000
opls_145-68    C    0.93062007    0.57140998    0.24870924    -0.12900000
opls_145-69    C    0.43062007    0.07140998    0.24870924    -0.12900000
opls_145-70    C    0.06938995    0.57140998    0.75129076    -0.12900000
opls_145-71    C    0.56938995    0.07140998    0.75129076    -0.13490000
opls_145-72    C    0.92625994    0.50000000    0.38839956    -0.07220000
opls_145-73    C    0.42625994    0.00000000    0.38839956    -0.07220000
opls_145-74    C    0.07374006    0.50000000    0.61160044    -0.07220000
opls_145-75    C    0.57374006    0.00000000    0.61160044    -0.07220000
opls_700-76    C    0.01483004    0.50000000    0.52631017    0.02750000
opls_700-77    C    0.51483004    0.00000000    0.52631017    0.02750000
opls_700-78    C    0.98516996    0.50000000    0.47368983    0.02850000
opls_700-79    C    0.48516996    0.00000000    0.47368983    0.02750000
opls_142-80    C    0.11724991    0.64297006    0.32415103    0.05920000
opls_142-81    C    0.61724991    0.14297006    0.32415103    0.05670000
opls_142-82    C    0.88275003    0.64297006    0.67585164    0.05920000
opls_142-83    C    0.38275003    0.14297006    0.67585164    0.05540000
opls_142-84    C    0.88275003    0.35702994    0.67585164    0.05540000
opls_142-85    C    0.38275003    0.85702994    0.67585164    0.05540000
opls_142-86    C    0.11724991    0.35702994    0.32415103    0.05670000
opls_142-87    C    0.61724991    0.85702994    0.32415103    0.05670000
opls_567-88    C    0.20234993    0.71335010    0.26494014    -0.01900000
opls_567-89    C    0.70234993    0.21334990    0.26494014    -0.01900000
opls_567-90    C    0.79765007    0.71335010    0.73505986    -0.01900000
opls_567-91    C    0.29765007    0.21334990    0.73505986    -0.01900000
opls_567-92    C    0.79765007    0.28664990    0.73505986    -0.01900000
opls_567-93    C    0.29765007    0.78664990    0.73505986    -0.01900000
opls_567-94    C    0.20234993    0.28664990    0.26494014    -0.01900000
opls_567-95    C    0.70234993    0.78664990    0.26494014    -0.01900000
opls_716-96    C    0.22960995    0.70035010    0.19295905    -0.16480000
opls_716-97    C    0.72960995    0.20035010    0.19295905    -0.16480000
opls_716-98    C    0.77039005    0.70035010    0.80704095    -0.16480000
opls_716-99    C    0.27039005    0.20035010    0.80704095    -0.16480000
opls_716-100    C    0.77039005    0.29965010    0.80704095    -0.17960000
opls_716-101    C    0.27039005    0.79965010    0.80704095    -0.17960000
opls_716-102    C    0.22960995    0.29965010    0.19295905    -0.17960000
opls_716-103    C    0.72960995    0.79965010    0.19295905    -0.17960000
opls_716-104    C    0.25158999    0.71472994    0.28859141    0.10020000
opls_716-105    C    0.75158999    0.21472994    0.28859141    0.10020000
opls_716-106    C    0.74840995    0.71472994    0.71141126    0.10010000
opls_716-107    C    0.24840995    0.21472994    0.71141126    0.10020000
opls_716-108    C    0.74840995    0.28527006    0.71141126    -0.15200000
opls_716-109    C    0.24840995    0.78527006    0.71141126    -0.15200000
opls_716-110    C    0.25158999    0.28527006    0.28859141    -0.15200000
opls_716-111    C    0.75158999    0.78527006    0.28859141    -0.15200000
opls_567-112    C    0.24097006    0.73968004    0.43244952    -0.05880000
opls_567-113    C    0.74097006    0.23968004    0.43244952    -0.05880000
opls_567-114    C    0.75903997    0.73968004    0.56755048    -0.05880000
opls_567-115    C    0.25902994    0.23968004    0.56755048    -0.05880000
opls_567-116    C    0.75903997    0.26031996    0.56755048    -0.00190000
opls_567-117    C    0.25902994    0.76031996    0.56755048    -0.00190000
opls_567-118    C    0.24097006    0.26031996    0.43244952    -0.00190000
opls_567-119    C    0.74097006    0.76031996    0.43244952    -0.00190000
opls_135-120    C    0.71766000    0.70279002    0.75259019    -0.44940000
opls_135-121    C    0.21766000    0.20279002    0.75259019    -0.44930000
opls_135-122    C    0.28234000    0.70279002    0.24740981    -0.44940000
opls_135-123    C    0.78234000    0.20279002    0.24740981    -0.44940000
opls_567-124    C    0.86389993    0.66678004    0.72802105    -0.02940000
opls_567-125    C    0.36389993    0.16677006    0.72802105    -0.02940000
opls_567-126    C    0.13610007    0.66678004    0.27197895    -0.02930000
opls_567-127    C    0.63610007    0.16677006    0.27197895    -0.02940000
opls_567-128    C    0.13610007    0.33322994    0.27197895    -0.02940000
opls_567-129    C    0.63610007    0.83322994    0.27197895    -0.02940000
opls_567-130    C    0.86389993    0.33322994    0.72802105    -0.02940000
opls_567-131    C    0.36389993    0.83322994    0.72802105    -0.02940000
opls_567-132    C    0.82553993    0.69950000    0.75769987    -0.01100000
opls_567-133    C    0.32553993    0.19950000    0.75769987    -0.01100000
opls_567-134    C    0.17446007    0.69950000    0.24230013    -0.01100000
opls_567-135    C    0.67446007    0.19950000    0.24230013    -0.01100000
opls_567-136    C    0.17446007    0.30050000    0.24230013    -0.05690000
opls_567-137    C    0.67446007    0.80050000    0.24230013    -0.05680000
opls_567-138    C    0.82553993    0.30050000    0.75769987    -0.05690000
opls_567-139    C    0.32553993    0.80050000    0.75769987    -0.05690000
opls_716-140    C    0.85270989    0.71097006    0.78310151    -0.15200000
opls_716-141    C    0.35270989    0.21097006    0.78310151    -0.15200000
opls_716-142    C    0.14729005    0.71097006    0.21690116    -0.15190000
opls_716-143    C    0.64729005    0.21097006    0.21690116    -0.15200000
opls_700-144    C    0.14729005    0.28902994    0.21690116    0.10260000
opls_700-145    C    0.64729005    0.78902994    0.21690116    0.10260000
opls_700-146    C    0.85270989    0.28902994    0.78310151    0.10260000
opls_700-147    C    0.35270989    0.78902994    0.78310151    0.10270000
opls_716-148    C    0.87455006    0.69196008    0.76371942    -0.17920000
opls_716-149    C    0.37455006    0.19196008    0.76371942    -0.17930000
opls_716-150    C    0.12544994    0.69196008    0.23628058    -0.17930000
opls_716-151    C    0.62544994    0.19196008    0.23628058    -0.17930000
opls_716-152    C    0.12544994    0.30803992    0.23628058    -0.16460000
opls_716-153    C    0.62544994    0.80803992    0.23628058    -0.16460000
opls_716-154    C    0.87455006    0.30803992    0.76371942    -0.16460000
opls_716-155    C    0.37455006    0.80803992    0.76371942    -0.16460000
opls_701-156    C    0.85910995    0.26030998    0.84419084    -0.42560000
opls_701-157    C    0.35910995    0.76030998    0.84419084    -0.42560000
opls_701-158    C    0.14089005    0.26030998    0.15580916    -0.42540000
opls_701-159    C    0.64089005    0.76030998    0.15580916    -0.42550000
opls_146-160    H    0.02420003    0.43237006    0.53299945    0.10760000
opls_146-161    H    0.52420003    0.93237006    0.53299945    0.10750000
opls_146-162    H    0.97579997    0.43237006    0.46700055    0.10750000
opls_146-163    H    0.47579997    0.93237006    0.46700055    0.10750000
opls_146-164    H    0.97579997    0.56762994    0.46700055    0.10750000
opls_146-165    H    0.47579997    0.06762994    0.46700055    0.10750000
opls_146-166    H    0.02420003    0.56762994    0.53299945    0.10760000
opls_146-167    H    0.52420003    0.06762994    0.53299945    0.10760000
opls_146-168    H    0.88488997    0.46841996    0.87183113    0.11350000
opls_146-169    H    0.38488997    0.96841996    0.87183113    0.11780000
opls_146-170    H    0.11511003    0.46841996    0.12816887    0.11780000
opls_146-171    H    0.61511003    0.96841996    0.12816887    0.11350000
opls_146-172    H    0.11511003    0.53158004    0.12816887    0.11780000
opls_146-173    H    0.61511003    0.03158004    0.12816887    0.11350000
opls_146-174    H    0.88488997    0.53158004    0.87183113    0.11350000
opls_146-175    H    0.38488997    0.03158004    0.87183113    0.11780000
opls_146-176    H    0.85467999    0.42700000    0.97322155    0.11760000
opls_146-177    H    0.35468003    0.92700000    0.97322956    0.11770000
opls_146-178    H    0.14531995    0.42700000    0.02678112    0.11760000
opls_146-179    H    0.64531995    0.92700000    0.02678112    0.11760000
opls_146-180    H    0.14531995    0.57300000    0.02678112    0.11760000
opls_146-181    H    0.64531995    0.07300000    0.02678112    0.11760000
opls_146-182    H    0.85467999    0.57300000    0.97322155    0.11760000
opls_146-183    H    0.35468003    0.07300000    0.97322956    0.11760000
opls_146-184    H    0.07772987    0.38741996    0.83844079    0.12270000
opls_146-185    H    0.57772987    0.88741996    0.83844079    0.12270000
opls_146-186    H    0.92226991    0.38741996    0.16155921    0.12270000
opls_146-187    H    0.42226991    0.88741996    0.16155921    0.12270000
opls_146-188    H    0.92226991    0.61258004    0.16155921    0.12280000
opls_146-189    H    0.42226991    0.11258004    0.16155921    0.12280000
opls_146-190    H    0.07772987    0.61258004    0.83844079    0.12270000
opls_146-191    H    0.57772987    0.11258004    0.83844079    0.12270000
opls_146-192    H    0.04871989    0.42871996    0.95863162    0.09720000
opls_146-193    H    0.54872991    0.92870998    0.95863162    0.10750000
opls_146-194    H    0.95128005    0.42871996    0.04137105    0.10750000
opls_146-195    H    0.45128005    0.92870998    0.04137105    0.10750000
opls_146-196    H    0.95128005    0.57129002    0.04137105    0.10750000
opls_146-197    H    0.45128005    0.07129002    0.04137105    0.10750000
opls_146-198    H    0.04871989    0.57129002    0.95863162    0.09720000
opls_146-199    H    0.54872991    0.07129002    0.95863162    0.10750000
opls_146-200    H    0.90339992    0.50000000    0.35896889    0.11410000
opls_146-201    H    0.40339992    0.00000000    0.35896889    0.11410000
opls_146-202    H    0.09659986    0.50000000    0.64103111    0.11550000
opls_146-203    H    0.59659986    0.00000000    0.64103111    0.11550000
opls_144-204    H    0.09310005    0.64500998    0.36434005    0.10780000
opls_144-205    H    0.59310005    0.14500998    0.36434005    0.10780000
opls_144-206    H    0.90689995    0.64500998    0.63565995    0.10780000
opls_144-207    H    0.40689995    0.14500998    0.63565995    0.10780000
opls_144-208    H    0.90689995    0.35499002    0.63565995    0.10780000
opls_144-209    H    0.40689995    0.85499002    0.63565995    0.10780000
opls_144-210    H    0.09310005    0.35499002    0.36434005    0.10780000
opls_144-211    H    0.59310005    0.85499002    0.36434005    0.10790000
opls_570-212    H    0.23311000    0.68040998    0.08311031    0.12100000
opls_570-213    H    0.73311000    0.18040998    0.08311031    0.12100000
opls_570-214    H    0.76689000    0.68040998    0.91688969    0.12100000
opls_570-215    H    0.26689000    0.18040998    0.91688969    0.12100000
opls_570-216    H    0.76664993    0.31952994    0.91906964    0.11810000
opls_570-217    H    0.26663991    0.81952994    0.91906964    0.11810000
opls_570-218    H    0.23336009    0.31952994    0.08093036    0.11810000
opls_570-219    H    0.73335007    0.81952994    0.08093036    0.11810000
opls_570-220    H    0.89743994    0.69637006    0.77148133    0.12270000
opls_570-221    H    0.39743994    0.19637006    0.77148133    0.12270000
opls_570-222    H    0.10256001    0.69637006    0.22852134    0.12270000
opls_570-223    H    0.60256001    0.19637006    0.22852134    0.12270000
opls_570-224    H    0.10265000    0.30374990    0.22364113    0.11760000
opls_570-225    H    0.60265000    0.80374990    0.22364113    0.11760000
opls_570-226    H    0.89734994    0.30374990    0.77636154    0.11760000
opls_570-227    H    0.39734994    0.80374990    0.77636154    0.11760000
opls_702-228    H    0.37790998    0.75276008    0.62613967    0.17260000
opls_702-229    H    0.36565985    0.75868004    0.09767089    0.13570000
opls_702-230    H    0.33915001    0.74750998    0.87041163    0.12320000
opls_140-231    H    0.29953997    0.71542994    0.06774926    0.10560000
opls_140-232    H    0.28728007    0.70135010    0.51086907    0.10350000
opls_140-233    H    0.28391992    0.68240998    0.13185904    0.17100000
opls_702-234    H    0.87790998    0.25276008    0.62613967    0.17260000
opls_702-235    H    0.86565985    0.25868004    0.09767089    0.13550000
opls_702-236    H    0.83915001    0.24750998    0.87041163    0.12320000
opls_140-237    H    0.79953997    0.21542994    0.06774926    0.10560000
opls_140-238    H    0.78728007    0.20135010    0.51086907    0.10350000
opls_140-239    H    0.78391992    0.18240998    0.13185904    0.17090000
opls_702-240    H    0.62209002    0.75276008    0.37386033    0.17250000
opls_702-241    H    0.63433994    0.75868004    0.90232911    0.13550000
opls_702-242    H    0.66084994    0.74750998    0.12959104    0.12320000
opls_140-243    H    0.70046003    0.71542994    0.93225074    0.10570000
opls_140-244    H    0.71271993    0.70135010    0.48913093    0.10350000
opls_140-245    H    0.71607986    0.68240998    0.86814096    0.17090000
opls_702-246    H    0.12209002    0.25276008    0.37386033    0.17250000
opls_702-247    H    0.13433994    0.25868004    0.90232911    0.13550000
opls_702-248    H    0.16084994    0.24750998    0.12959104    0.12320000
opls_140-249    H    0.20046003    0.21542994    0.93225074    0.10560000
opls_140-250    H    0.21271993    0.20135010    0.48913093    0.10350000
opls_140-251    H    0.21607986    0.18240998    0.86814096    0.17090000
opls_570-252    H    0.64401996    0.23221996    0.19292970    0.11820000
opls_570-253    H    0.72547000    0.29208004    0.74547133    0.12030000
opls_570-254    H    0.35598004    0.23221996    0.80707030    0.11810000
opls_570-255    H    0.27452995    0.29208004    0.25453134    0.12030000
opls_570-256    H    0.85598004    0.73221996    0.80707030    0.11810000
opls_570-257    H    0.77452995    0.79208004    0.25453134    0.12030000
opls_570-258    H    0.14401996    0.73221996    0.19292970    0.11810000
opls_570-259    H    0.22547000    0.79208004    0.74547133    0.12040000
opls_750-260    N    0.62958009    0.11975010    0.33027998    -0.29710000
opls_750-261    N    0.12958009    0.61975010    0.33027998    -0.29710000
opls_750-262    N    0.37042993    0.11975010    0.66972002    -0.29700000
opls_750-263    N    0.87042993    0.61975010    0.66972002    -0.29690000
opls_750-264    N    0.37042993    0.88024990    0.66972002    -0.29700000
opls_750-265    N    0.87042993    0.38025010    0.66972002    -0.29690000
opls_750-266    N    0.62958009    0.88024990    0.33027998    -0.29710000
opls_750-267    N    0.12958009    0.38025010    0.33027998    -0.29700000
opls_633-268    S    0.20334990    0.74404990    0.45013995    0.07760000
opls_633-269    S    0.70334992    0.24405010    0.45012928    0.07760000
opls_633-270    S    0.79664987    0.74404990    0.54987072    0.07760000
opls_633-271    S    0.29664988    0.24405010    0.54986005    0.07760000
opls_633-272    S    0.79664987    0.25595010    0.54987072    0.07760000
opls_633-273    S    0.29664988    0.75594990    0.54986005    0.07760000
opls_633-274    S    0.20334990    0.25595010    0.45013995    0.07770000
opls_633-275    S    0.70334992    0.75594990    0.45012928    0.07760000
opls_633-276    S    0.82711997    0.66548004    0.71877026    0.07760000
opls_633-277    S    0.32711997    0.16548004    0.71877026    0.07760000
opls_633-278    S    0.17288003    0.66548004    0.28122974    0.07760000
opls_633-279    S    0.67288003    0.16548004    0.28122974    0.07760000
opls_633-280    S    0.17288003    0.33451996    0.28122974    0.07760000
opls_633-281    S    0.67288003    0.83451996    0.28122974    0.07760000
opls_633-282    S    0.82711997    0.33451996    0.71877026    0.07760000
opls_633-283    S    0.32711997    0.83451996    0.71877026    0.07760000
