#======================================================================
# Crystal Data Generated By AuToFF
#----------------------------------------------------------------------

data_AuToFF_phase_1

_cell_length_a                         44.7430
_cell_length_b                         44.7430
_cell_length_c                         3.5235
_cell_angle_alpha                      90.00
_cell_angle_beta                       90.00
_cell_angle_gamma                      120.00
_symmetry_space_group_name_H-M_alt     'P 1'
_symmetry_space_group_IT_number        1

loop_
_space_group_symop_operation_xyz
   'x, y, z'

loop_
   _atom_site_label
   _atom_site_type_symbol
   _atom_site_fract_x
   _atom_site_fract_y
   _atom_site_fract_z
   _atom_site_charge
opls_145-0    C    0.31738011    0.68658018    0.50000000    -0.07850000
opls_700-1    C    0.29700018    0.65051020    0.50000000    0.08980000
opls_700-2    C    0.36639013    0.62531004    0.50000000    0.08060000
opls_145-3    C    0.40253000    0.64104998    0.50000000    -0.07200000
opls_145-4    C    0.41852011    0.62109002    0.50000000    -0.12950000
opls_145-5    C    0.39856002    0.58490004    0.50000000    0.23340000
opls_145-6    C    0.36261002    0.56915004    0.50000000    -0.10710000
opls_145-7    C    0.34668002    0.58911000    0.50000000    -0.07200000
opls_700-8    C    0.46215997    0.55346997    0.50000000    0.07380000
opls_145-9    C    0.49805003    0.56824007    0.50000000    -0.09000000
opls_145-10    C    0.51293993    0.54724007    0.50000000    -0.07200000
opls_700-11    C    0.49213009    0.51110996    0.50000000    0.07590000
opls_145-12    C    0.45605005    0.49652000    0.50000000    -0.07220000
opls_145-13    C    0.44122005    0.51752000    0.50000000    -0.09000000
opls_142-14    C    0.55272991    0.42388997    0.50000000    0.01650000
opls_145-15    C    0.31342005    0.63080005    0.50000000    -0.07850000
opls_700-16    C    0.34949009    0.64649018    0.50000000    0.08980000
opls_700-17    C    0.37468992    0.74107999    0.50000000    0.08060000
opls_145-18    C    0.35894999    0.76147997    0.50000000    -0.07200000
opls_145-19    C    0.37890999    0.79743020    0.50000000    -0.12950000
opls_145-20    C    0.41510001    0.81366022    0.50000000    0.23340000
opls_145-21    C    0.43084997    0.79345999    0.50000000    -0.10710000
opls_145-22    C    0.41088999    0.75757015    0.50000000    -0.07200000
opls_700-23    C    0.44652995    0.90869005    0.50000000    0.07380000
opls_145-24    C    0.43175995    0.92981005    0.50000000    -0.09000000
opls_145-25    C    0.45276001    0.96570015    0.50000000    -0.07200000
opls_700-26    C    0.48889018    0.98102020    0.50000000    0.07590000
opls_145-27    C    0.50348005    0.95953012    0.50000000    -0.07220000
opls_145-28    C    0.48248012    0.92370015    0.50000000    -0.09000000
opls_142-29    C    0.57611015    0.12884011    0.50000000    0.01650000
opls_145-30    C    0.36919996    0.68262003    0.50000000    -0.07850000
opls_700-31    C    0.35350999    0.70300014    0.50000000    0.08980000
opls_700-32    C    0.25891995    0.63360996    0.50000000    0.08060000
opls_145-33    C    0.23852002    0.59747005    0.50000000    -0.07200000
opls_145-34    C    0.20257003    0.58148004    0.50000000    -0.12950000
opls_145-35    C    0.18634010    0.60144000    0.50000000    0.23340000
opls_145-36    C    0.20654001    0.63738997    0.50000000    -0.10710000
opls_145-37    C    0.24243012    0.65332011    0.50000000    -0.07200000
opls_700-38    C    0.09131008    0.53783998    0.50000000    0.07380000
opls_145-39    C    0.07019014    0.50195014    0.50000000    -0.09000000
opls_145-40    C    0.03429997    0.48706004    0.50000000    -0.07200000
opls_700-41    C    0.01898008    0.50787010    0.50000000    0.07590000
opls_145-42    C    0.04047003    0.54395014    0.50000000    -0.07220000
opls_145-43    C    0.07629996    0.55878010    0.50000000    -0.09000000
opls_142-44    C    0.87115994    0.44726993    0.50000000    0.01650000
opls_145-45    C    0.68262002    0.31342008    0.50000000    -0.07850000
opls_700-46    C    0.70299995    0.34949006    0.50000000    0.08980000
opls_700-47    C    0.63360987    0.37468996    0.50000000    0.08060000
opls_145-48    C    0.59747000    0.35895002    0.50000000    -0.07200000
opls_145-49    C    0.58147989    0.37890998    0.50000000    -0.12950000
opls_145-50    C    0.60143998    0.41509996    0.50000000    0.23340000
opls_145-51    C    0.63738998    0.43084996    0.50000000    -0.10710000
opls_145-52    C    0.65331998    0.41089000    0.50000000    -0.07200000
opls_700-53    C    0.53784003    0.44653003    0.50000000    0.07380000
opls_145-54    C    0.50194997    0.43175993    0.50000000    -0.09000000
opls_145-55    C    0.48706007    0.45275993    0.50000000    -0.07200000
opls_700-56    C    0.50786991    0.48889004    0.50000000    0.07590000
opls_145-57    C    0.54394995    0.50348000    0.50000000    -0.07220000
opls_145-58    C    0.55877995    0.48248000    0.50000000    -0.09000000
opls_142-59    C    0.44727009    0.57611003    0.50000000    0.01650000
opls_145-60    C    0.68657995    0.36919995    0.50000000    -0.07850000
opls_700-61    C    0.65051004    0.35351008    0.50000000    0.08980000
opls_700-62    C    0.62531008    0.25892001    0.50000000    0.08060000
opls_145-63    C    0.64105001    0.23852003    0.50000000    -0.07200000
opls_145-64    C    0.62109014    0.20257006    0.50000000    -0.12950000
opls_145-65    C    0.58490012    0.18634004    0.50000000    0.23340000
opls_145-66    C    0.56915003    0.20654001    0.50000000    -0.10710000
opls_145-67    C    0.58911014    0.24243011    0.50000000    -0.07200000
opls_700-68    C    0.55347005    0.09130995    0.50000000    0.07380000
opls_145-69    C    0.56824005    0.07018995    0.50000000    -0.09000000
opls_145-70    C    0.54724012    0.03430010    0.50000000    -0.07200000
opls_700-71    C    0.51110995    0.01898006    0.50000000    0.07590000
opls_145-72    C    0.49651995    0.04046988    0.50000000    -0.07220000
opls_145-73    C    0.51752001    0.07630011    0.50000000    -0.09000000
opls_142-74    C    0.42388998    0.87116015    0.50000000    0.01650000
opls_145-75    C    0.63080004    0.31737997    0.50000000    -0.07850000
opls_700-76    C    0.64649014    0.29700012    0.50000000    0.08980000
opls_700-77    C    0.74108005    0.36639004    0.50000000    0.08070000
opls_145-78    C    0.76147998    0.40252995    0.50000000    -0.07200000
opls_145-79    C    0.79742997    0.41851996    0.50000000    -0.12950000
opls_145-80    C    0.81365990    0.39856000    0.50000000    0.23340000
opls_145-81    C    0.79345999    0.36261003    0.50000000    -0.10710000
opls_145-82    C    0.75757001    0.34668015    0.50000000    -0.07200000
opls_700-83    C    0.90868992    0.46216002    0.50000000    0.07390000
opls_145-84    C    0.92980999    0.49805012    0.50000000    -0.09000000
opls_145-85    C    0.96570003    0.51293996    0.50000000    -0.07200000
opls_700-86    C    0.98102005    0.49213016    0.50000000    0.07590000
opls_145-87    C    0.95953010    0.45605012    0.50000000    -0.07220000
opls_145-88    C    0.92370017    0.44122015    0.50000000    -0.09000000
opls_142-89    C    0.12884006    0.55273007    0.50000000    0.01650000
opls_750-90    N    0.43633991    0.85046003    0.50000000    -0.27360000
opls_750-91    N    0.14953989    0.58587994    0.50000000    -0.27360000
opls_750-92    N    0.41411998    0.56366003    0.50000000    -0.27360000
opls_750-93    N    0.56366009    0.14953997    0.50000000    -0.27350000
opls_750-94    N    0.85046011    0.41412006    0.50000000    -0.27360000
opls_750-95    N    0.58588002    0.43633997    0.50000000    -0.27360000
opls_146-96    H    0.30426006    0.70282000    0.50000000    0.05100000
opls_146-97    H    0.41888000    0.67041003    0.50000000    0.05100000
opls_146-98    H    0.44787999    0.63416018    0.50000000    0.05100000
opls_146-99    H    0.34619006    0.53978998    0.50000000    0.05040000
opls_146-100    H    0.31726003    0.57611003    0.50000000    0.05040000
opls_146-101    H    0.51520006    0.59753018    0.50000000    0.05040000
opls_146-102    H    0.54217994    0.55945006    0.50000000    0.05110000
opls_146-103    H    0.43878001    0.46722008    0.50000000    0.05040000
opls_146-104    H    0.41192997    0.50531000    0.50000000    0.05100000
opls_144-105    H    0.53467014    0.39471005    0.50000000    0.03010000
opls_146-106    H    0.29718001    0.60144000    0.50000000    0.05100000
opls_146-107    H    0.32959013    0.74847020    0.50000000    0.05100000
opls_146-108    H    0.36584000    0.81372009    0.50000000    0.05100000
opls_146-109    H    0.46021008    0.80640008    0.50000000    0.05040000
opls_146-110    H    0.42389003    0.74115019    0.50000000    0.05040000
opls_146-111    H    0.40246998    0.91766999    0.50000000    0.05040000
opls_146-112    H    0.44055000    0.98273020    0.50000000    0.05110000
opls_146-113    H    0.53278010    0.97156024    0.50000000    0.05040000
opls_146-114    H    0.49469012    0.90662004    0.50000000    0.05100000
opls_144-115    H    0.60529011    0.13996000    0.50000000    0.03010000
opls_146-116    H    0.39855994    0.69574000    0.50000000    0.05100000
opls_146-117    H    0.25153000    0.58112003    0.50000000    0.05100000
opls_146-118    H    0.18627992    0.55211999    0.50000000    0.05100000
opls_146-119    H    0.19360000    0.65381019    0.50000000    0.05040000
opls_146-120    H    0.25885007    0.68274003    0.50000000    0.05040000
opls_146-121    H    0.08233009    0.48480008    0.50000000    0.05040000
opls_146-122    H    0.01726996    0.45781999    0.50000000    0.05110000
opls_146-123    H    0.02844015    0.56122019    0.50000000    0.05040000
opls_146-124    H    0.09337991    0.58806996    0.50000000    0.05100000
opls_144-125    H    0.86003998    0.46532995    0.50000000    0.03010000
opls_146-126    H    0.69573994    0.29718000    0.50000000    0.05100000
opls_146-127    H    0.58112000    0.32958997    0.50000000    0.05100000
opls_146-128    H    0.55212014    0.36584008    0.50000000    0.05100000
opls_146-129    H    0.65380994    0.46021002    0.50000000    0.05040000
opls_146-130    H    0.68273997    0.42388997    0.50000000    0.05040000
opls_146-131    H    0.48480007    0.40247008    0.50000000    0.05040000
opls_146-132    H    0.45782006    0.44054994    0.50000000    0.05110000
opls_146-133    H    0.56122012    0.53278018    0.50000000    0.05040000
opls_146-134    H    0.58807003    0.49469000    0.50000000    0.05100000
opls_144-135    H    0.46532986    0.60528995    0.50000000    0.03010000
opls_146-136    H    0.70281999    0.39856000    0.50000000    0.05100000
opls_146-137    H    0.67041000    0.25153006    0.50000000    0.05100000
opls_146-138    H    0.63416000    0.18627991    0.50000000    0.05100000
opls_146-139    H    0.53978992    0.19359992    0.50000000    0.05040000
opls_146-140    H    0.57611010    0.25885007    0.50000000    0.05040000
opls_146-141    H    0.59753002    0.08233001    0.50000000    0.05040000
opls_146-142    H    0.55945013    0.01727006    0.50000000    0.05110000
opls_146-143    H    0.46722003    0.02844002    0.50000000    0.05040000
opls_146-144    H    0.50530988    0.09337996    0.50000000    0.05100000
opls_144-145    H    0.39470989    0.86004000    0.50000000    0.03010000
opls_146-146    H    0.60144006    0.30426000    0.50000000    0.05100000
opls_146-147    H    0.74847000    0.41887997    0.50000000    0.05100000
opls_146-148    H    0.81372008    0.44788001    0.50000000    0.05100000
opls_146-149    H    0.80640013    0.34619007    0.50000000    0.05040000
opls_146-150    H    0.74114993    0.31725997    0.50000000    0.05070000
opls_146-151    H    0.91767004    0.51520017    0.50000000    0.05040000
opls_146-152    H    0.98273004    0.54218001    0.50000000    0.05110000
opls_146-153    H    0.97155998    0.43878006    0.50000000    0.05040000
opls_146-154    H    0.90662009    0.41193004    0.50000000    0.05100000
opls_144-155    H    0.13996002    0.53467005    0.50000000    0.03010000
