#======================================================================
# Crystal Data Generated By AuToFF
#----------------------------------------------------------------------

data_AuToFF_phase_1

_cell_length_a                         42.4325
_cell_length_b                         30.6471
_cell_length_c                         4.6597
_cell_angle_alpha                      90.00
_cell_angle_beta                       90.00
_cell_angle_gamma                      90.00
_symmetry_space_group_name_H-M_alt     'P 1'
_symmetry_space_group_IT_number        1

loop_
_space_group_symop_operation_xyz
   'x, y, z'

loop_
   _atom_site_label
   _atom_site_type_symbol
   _atom_site_fract_x
   _atom_site_fract_y
   _atom_site_fract_z
   _atom_site_charge
opls_145-0    C    0.36298993    0.37105012    0.70862931    -0.19020000
opls_145-1    C    0.39176999    0.39473001    0.71333991    -0.09100000
opls_700-2    C    0.41548012    0.38814994    0.92493937    0.06510000
opls_145-3    C    0.35646002    0.33761987    0.90518059    0.20200000
opls_145-4    C    0.61895010    0.67227992    0.10281992    -0.16010000
opls_145-5    C    0.59017003    0.64744005    0.11279911    -0.08940000
opls_543-6    C    0.47396005    0.40792995    0.98573084    0.21570000
opls_543-7    C    0.43311990    0.46475001    0.98247097    0.21790000
opls_716-8    C    0.48388004    0.36510991    0.98673949    -0.19170000
opls_716-9    C    0.40182997    0.47825014    0.99822950    -0.19140000
opls_700-10    C    0.55868002    0.42008999    0.03630920    -0.11450000
opls_142-11    C    0.18580004    0.78437993    0.05916905    0.01470000
opls_700-12    C    0.21780004    0.76754995    0.02631929    -0.03700000
opls_145-13    C    0.23997007    0.78485991    0.83007061    -0.25140000
opls_727-14    C    0.22869004    0.73211984    0.19569929    0.24950000
opls_145-15    C    0.63701007    0.62894988    0.70862931    -0.19020000
opls_145-16    C    0.60823001    0.60526999    0.71333991    -0.09100000
opls_700-17    C    0.58451988    0.61185006    0.92493937    0.06510000
opls_145-18    C    0.64353998    0.66238013    0.90518059    0.20200000
opls_145-19    C    0.38104990    0.32772008    0.10281992    -0.16010000
opls_145-20    C    0.40982997    0.35255995    0.11279911    -0.08940000
opls_543-21    C    0.52603995    0.59207005    0.98573084    0.21570000
opls_543-22    C    0.56688010    0.53524999    0.98247097    0.21790000
opls_716-23    C    0.51611996    0.63489009    0.98673949    -0.19170000
opls_716-24    C    0.59817003    0.52174986    0.99822950    -0.19140000
opls_700-25    C    0.44131998    0.57991001    0.03630920    -0.11450000
opls_142-26    C    0.81419996    0.21562007    0.05916905    0.01470000
opls_700-27    C    0.78219996    0.23245005    0.02631929    -0.03700000
opls_145-28    C    0.76002993    0.21514009    0.83007061    -0.25140000
opls_727-29    C    0.77130996    0.26788016    0.19569929    0.24950000
opls_145-30    C    0.63701007    0.37105012    0.29137069    -0.19020000
opls_145-31    C    0.60823001    0.39473001    0.28666009    -0.09100000
opls_700-32    C    0.58451988    0.38814994    0.07506063    0.06510000
opls_145-33    C    0.64353998    0.33761987    0.09481941    0.20200000
opls_145-34    C    0.38104990    0.67227992    0.89718008    -0.16010000
opls_145-35    C    0.40982997    0.64744005    0.88720089    -0.08940000
opls_543-36    C    0.52603995    0.40792995    0.01426916    0.21570000
opls_543-37    C    0.56688010    0.46475001    0.01752903    0.21790000
opls_716-38    C    0.51611996    0.36510991    0.01326051    -0.19170000
opls_716-39    C    0.59817003    0.47825014    0.00177050    -0.19140000
opls_700-40    C    0.44131998    0.42008999    0.96369080    -0.11450000
opls_142-41    C    0.81419996    0.78437993    0.94083095    0.01470000
opls_700-42    C    0.78219996    0.76754995    0.97368071    -0.03700000
opls_145-43    C    0.76002993    0.78485991    0.16992939    -0.25140000
opls_727-44    C    0.77130996    0.73211984    0.80430071    0.24950000
opls_145-45    C    0.36298993    0.62894988    0.29137069    -0.19020000
opls_145-46    C    0.39176999    0.60526999    0.28666009    -0.09100000
opls_700-47    C    0.41548012    0.61185006    0.07506063    0.06510000
opls_145-48    C    0.35646002    0.66238013    0.09481941    0.20200000
opls_145-49    C    0.61895010    0.32772008    0.89718008    -0.16010000
opls_145-50    C    0.59017003    0.35255995    0.88720089    -0.08940000
opls_543-51    C    0.47396005    0.59207005    0.01426916    0.21570000
opls_543-52    C    0.43311990    0.53524999    0.01752903    0.21790000
opls_716-53    C    0.48388004    0.63489009    0.01326051    -0.19170000
opls_716-54    C    0.40182997    0.52174986    0.00177050    -0.19140000
opls_700-55    C    0.55868002    0.57991001    0.96369080    -0.11450000
opls_142-56    C    0.18580004    0.21562007    0.94083095    0.01470000
opls_700-57    C    0.21780004    0.23245005    0.97368071    -0.03700000
opls_145-58    C    0.23997007    0.21514009    0.16992939    -0.25140000
opls_727-59    C    0.22869004    0.26788016    0.80430071    0.24950000
opls_145-60    C    0.13701007    0.12894988    0.29137069    -0.19020000
opls_145-61    C    0.10823001    0.10526999    0.28666009    -0.09100000
opls_700-62    C    0.08451988    0.11185006    0.07506063    0.06510000
opls_145-63    C    0.14353998    0.16238013    0.09481941    0.20200000
opls_145-64    C    0.88104990    0.82772008    0.89718008    -0.16010000
opls_145-65    C    0.90982997    0.85255995    0.88720089    -0.08940000
opls_543-66    C    0.02603995    0.09207005    0.01426916    0.21570000
opls_543-67    C    0.06688010    0.03524999    0.01752903    0.21790000
opls_716-68    C    0.01611996    0.13489009    0.01326051    -0.19170000
opls_716-69    C    0.09817003    0.02174986    0.00177050    -0.19140000
opls_700-70    C    0.94131998    0.07991001    0.96369080    -0.11450000
opls_142-71    C    0.31419996    0.71562007    0.94083095    0.01470000
opls_700-72    C    0.28219996    0.73245005    0.97368071    -0.03700000
opls_145-73    C    0.26002993    0.71514009    0.16992939    -0.25140000
opls_727-74    C    0.27130996    0.76788016    0.80430071    0.24950000
opls_145-75    C    0.86298993    0.87105012    0.29137069    -0.19020000
opls_145-76    C    0.89176999    0.89473001    0.28666009    -0.09100000
opls_700-77    C    0.91548012    0.88814994    0.07506063    0.06510000
opls_145-78    C    0.85646002    0.83761987    0.09481941    0.20200000
opls_145-79    C    0.11895010    0.17227992    0.89718008    -0.16010000
opls_145-80    C    0.09017003    0.14744005    0.88720089    -0.08940000
opls_543-81    C    0.97396005    0.90792995    0.01426916    0.21570000
opls_543-82    C    0.93311990    0.96475001    0.01752903    0.21790000
opls_716-83    C    0.98388004    0.86510991    0.01326051    -0.19170000
opls_716-84    C    0.90182997    0.97825014    0.00177050    -0.19140000
opls_700-85    C    0.05868002    0.92008999    0.96369080    -0.11450000
opls_142-86    C    0.68580004    0.28437993    0.94083095    0.01470000
opls_700-87    C    0.71780004    0.26754995    0.97368071    -0.03700000
opls_145-88    C    0.73997007    0.28485991    0.16992939    -0.25140000
opls_727-89    C    0.72869004    0.23211984    0.80430071    0.24950000
opls_145-90    C    0.86298993    0.12894988    0.70862931    -0.19020000
opls_145-91    C    0.89176999    0.10526999    0.71333991    -0.09100000
opls_700-92    C    0.91548012    0.11185006    0.92493937    0.06520000
opls_145-93    C    0.85646002    0.16238013    0.90518059    0.20200000
opls_145-94    C    0.11895010    0.82772008    0.10281992    -0.16010000
opls_145-95    C    0.09017003    0.85255995    0.11279911    -0.08930000
opls_543-96    C    0.97396005    0.09207005    0.98573084    0.21570000
opls_543-97    C    0.93311990    0.03524999    0.98247097    0.21790000
opls_716-98    C    0.98388004    0.13489009    0.98673949    -0.19170000
opls_716-99    C    0.90182997    0.02174986    0.99822950    -0.19140000
opls_700-100    C    0.05868002    0.07991001    0.03630920    -0.11450000
opls_142-101    C    0.68580004    0.71562007    0.05916905    0.01470000
opls_700-102    C    0.71780004    0.73245005    0.02631929    -0.03700000
opls_145-103    C    0.73997007    0.71514009    0.83007061    -0.25140000
opls_727-104    C    0.72869004    0.76788016    0.19569929    0.24950000
opls_145-105    C    0.13701007    0.87105012    0.70862931    -0.19020000
opls_145-106    C    0.10823001    0.89473001    0.71333991    -0.09100000
opls_700-107    C    0.08451988    0.88814994    0.92493937    0.06510000
opls_145-108    C    0.14353998    0.83761987    0.90518059    0.20200000
opls_145-109    C    0.88104990    0.17227992    0.10281992    -0.16010000
opls_145-110    C    0.90982997    0.14744005    0.11279911    -0.08940000
opls_543-111    C    0.02603995    0.90792995    0.98573084    0.21570000
opls_543-112    C    0.06688010    0.96475001    0.98247097    0.21790000
opls_716-113    C    0.01611996    0.86510991    0.98673949    -0.19170000
opls_716-114    C    0.09817003    0.97825014    0.99822950    -0.19140000
opls_700-115    C    0.94131998    0.92008999    0.03630920    -0.11450000
opls_142-116    C    0.31419996    0.28437993    0.05916905    0.01470000
opls_700-117    C    0.28219996    0.26754995    0.02631929    -0.03700000
opls_145-118    C    0.26002993    0.28485991    0.83007061    -0.25140000
opls_727-119    C    0.27130996    0.23211984    0.19569929    0.24970000
opls_146-120    H    0.34534001    0.37940001    0.54926068    0.11910000
opls_146-121    H    0.39486997    0.42021986    0.55593922    0.12650000
opls_146-122    H    0.62217003    0.69786016    0.25858102    0.10030000
opls_146-123    H    0.57343993    0.65430987    0.28265983    0.11980000
opls_547-124    H    0.46952006    0.33619005    0.96957959    0.11920000
opls_547-125    H    0.38037000    0.45923007    0.01051999    0.12040000
opls_144-126    H    0.17093996    0.76980987    0.22175033    0.10460000
opls_146-127    H    0.23317009    0.81180014    0.69433011    0.11860000
opls_146-128    H    0.65465999    0.62059999    0.54926068    0.11910000
opls_146-129    H    0.60513003    0.57978014    0.55593922    0.12650000
opls_146-130    H    0.37782997    0.30213984    0.25858102    0.10030000
opls_146-131    H    0.42656007    0.34569013    0.28265983    0.11980000
opls_547-132    H    0.53047994    0.66380995    0.96957959    0.11920000
opls_547-133    H    0.61963000    0.54076993    0.01051999    0.12040000
opls_144-134    H    0.82906004    0.23019013    0.22175033    0.10470000
opls_146-135    H    0.76682991    0.18819986    0.69433011    0.11860000
opls_146-136    H    0.65465999    0.37940001    0.45073932    0.11910000
opls_146-137    H    0.60513003    0.42021986    0.44406078    0.12650000
opls_146-138    H    0.37782997    0.69786016    0.74141898    0.10030000
opls_146-139    H    0.42656007    0.65430987    0.71734017    0.11980000
opls_547-140    H    0.53047994    0.33619005    0.03042041    0.11920000
opls_547-141    H    0.61963000    0.45923007    0.98948001    0.12040000
opls_144-142    H    0.82906004    0.76980987    0.77824967    0.10460000
opls_146-143    H    0.76682991    0.81180014    0.30566989    0.11860000
opls_146-144    H    0.34534001    0.62059999    0.45073932    0.11910000
opls_146-145    H    0.39486997    0.57978014    0.44406078    0.12650000
opls_146-146    H    0.62217003    0.30213984    0.74141898    0.10040000
opls_146-147    H    0.57343993    0.34569013    0.71734017    0.11980000
opls_547-148    H    0.46952006    0.66380995    0.03042041    0.11920000
opls_547-149    H    0.38037000    0.54076993    0.98948001    0.12040000
opls_144-150    H    0.17093996    0.23019013    0.77824967    0.10460000
opls_146-151    H    0.23317009    0.18819986    0.30566989    0.11860000
opls_146-152    H    0.15465999    0.12059999    0.45073932    0.11910000
opls_146-153    H    0.10513003    0.07978014    0.44406078    0.12650000
opls_146-154    H    0.87782997    0.80213984    0.74141898    0.10030000
opls_146-155    H    0.92656007    0.84569013    0.71734017    0.11980000
opls_547-156    H    0.03047994    0.16380995    0.03042041    0.11920000
opls_547-157    H    0.11963000    0.04076993    0.98948001    0.12040000
opls_144-158    H    0.32906004    0.73019013    0.77824967    0.10460000
opls_146-159    H    0.26682991    0.68819986    0.30566989    0.11860000
opls_146-160    H    0.84534001    0.87940001    0.45073932    0.11910000
opls_146-161    H    0.89486997    0.92021986    0.44406078    0.12650000
opls_146-162    H    0.12217003    0.19786016    0.74141898    0.10030000
opls_146-163    H    0.07343993    0.15430987    0.71734017    0.11980000
opls_547-164    H    0.96952006    0.83619005    0.03042041    0.11920000
opls_547-165    H    0.88037000    0.95923007    0.98948001    0.12040000
opls_144-166    H    0.67093996    0.26980987    0.77824967    0.10470000
opls_146-167    H    0.73317009    0.31180014    0.30566989    0.11860000
opls_146-168    H    0.84534001    0.12059999    0.54926068    0.11910000
opls_146-169    H    0.89486997    0.07978014    0.55593922    0.12650000
opls_146-170    H    0.12217003    0.80213984    0.25858102    0.10030000
opls_146-171    H    0.07343993    0.84569013    0.28265983    0.11980000
opls_547-172    H    0.96952006    0.16380995    0.96957959    0.11920000
opls_547-173    H    0.88037000    0.04076993    0.01051999    0.12040000
opls_144-174    H    0.67093996    0.73019013    0.22175033    0.10460000
opls_146-175    H    0.73317009    0.68819986    0.69433011    0.11860000
opls_146-176    H    0.15465999    0.87940001    0.54926068    0.11910000
opls_146-177    H    0.10513003    0.92021986    0.55593922    0.12650000
opls_146-178    H    0.87782997    0.19786016    0.25858102    0.10030000
opls_146-179    H    0.92656007    0.15430987    0.28265983    0.11980000
opls_547-180    H    0.03047994    0.83619005    0.96957959    0.11920000
opls_547-181    H    0.11963000    0.95923007    0.01051999    0.12040000
opls_144-182    H    0.32906004    0.26980987    0.22175033    0.10460000
opls_146-183    H    0.26682991    0.31180014    0.69433011    0.11860000
opls_750-184    N    0.17320002    0.81754000    0.89571002    -0.24760000
opls_750-185    N    0.82679998    0.18246000    0.89571002    -0.24760000
opls_750-186    N    0.82679998    0.81754000    0.10428998    -0.24760000
opls_750-187    N    0.17320002    0.18246000    0.10428998    -0.24760000
opls_750-188    N    0.32679998    0.68246000    0.10428998    -0.24760000
opls_750-189    N    0.67320002    0.31754000    0.10428998    -0.24760000
opls_750-190    N    0.67320002    0.68246000    0.89571002    -0.24760000
opls_750-191    N    0.32679998    0.31754000    0.89571002    -0.24760000
opls_542-192    N    0.45313003    0.50000000    0.00000000    -0.37560000
opls_542-193    N    0.54686997    0.50000000    0.00000000    -0.37560000
opls_542-194    N    0.04686997    0.00000000    0.00000000    -0.37560000
opls_542-195    N    0.95313003    0.00000000    0.00000000    -0.37560000
opls_542-196    N    0.50000000    0.56475001    0.00000000    -0.37560000
opls_542-197    N    0.50000000    0.43524999    0.00000000    -0.37570000
opls_542-198    N    0.00000000    0.93524999    0.00000000    -0.37570000
opls_542-199    N    0.00000000    0.06475001    0.00000000    -0.37570000
opls_719-200    F    0.29107995    0.78654000    0.61064017    -0.12720000
opls_719-201    F    0.70892005    0.21346000    0.61064017    -0.12720000
opls_719-202    F    0.70892005    0.78654000    0.38935983    -0.12720000
opls_719-203    F    0.29107995    0.21346000    0.38935983    -0.12720000
opls_719-204    F    0.20892005    0.71346000    0.38935983    -0.12720000
opls_719-205    F    0.79107995    0.28654000    0.38935983    -0.12720000
opls_719-206    F    0.79107995    0.71346000    0.61064017    -0.12720000
opls_719-207    F    0.20892005    0.28654000    0.61064017    -0.12720000
F2_Co4+2-208    Co    0.50000000    0.50000000    0.00000000    0.69460000
F2_Co4+2-209    Co    0.00000000    0.00000000    0.00000000    0.69460000
