#======================================================================
# Crystal Data Generated By AuToFF
#----------------------------------------------------------------------

data_AuToFF_phase_1

_cell_length_a                         22.4124
_cell_length_b                         22.3715
_cell_length_c                         6.7244
_cell_angle_alpha                      90.76
_cell_angle_beta                       90.38
_cell_angle_gamma                      119.31
_symmetry_space_group_name_H-M_alt     'P 1'
_symmetry_space_group_IT_number        1

loop_
_space_group_symop_operation_xyz
   'x, y, z'

loop_
   _atom_site_label
   _atom_site_type_symbol
   _atom_site_fract_x
   _atom_site_fract_y
   _atom_site_fract_z
   _atom_site_charge
opls_916-0    C    0.91715027    0.92640035    0.06107068    0.13900000
opls_145-1    C    0.94948006    0.88570021    0.04857929    -0.25600000
opls_166-2    C    0.01980006    0.91677018    0.00670977    0.21130000
opls_916-3    C    0.06006003    0.98845993    0.97735099    0.13980000
opls_145-4    C    0.02785010    0.02927964    0.99221036    -0.25370000
opls_166-5    C    0.95737012    0.99820007    0.03363067    0.23070000
opls_142-6    C    0.17802009    0.07984973    0.90615987    0.03700000
opls_700-7    C    0.24704996    0.09920963    0.88220044    -0.15540000
opls_280-8    C    0.27144032    0.04889983    0.89758041    0.30560000
opls_280-9    C    0.29568010    0.17323970    0.86069079    0.32030000
opls_700-10    C    0.34611020    0.07482987    0.91552023    -0.12460000
opls_700-11    C    0.36996999    0.19664960    0.86853100    -0.12910000
opls_280-12    C    0.39618032    0.14822999    0.89496105    0.31180000
opls_142-13    C    0.41912989    0.26601974    0.87032038    0.08720000
opls_142-14    C    0.36648998    0.02754971    0.96822117    0.08710000
opls_916-15    C    0.44850027    0.38658985    0.88462048    0.13680000
opls_145-16    C    0.51994038    0.41472999    0.91337983    -0.26660000
opls_166-17    C    0.42004987    0.43111964    0.88675047    0.22290000
opls_166-18    C    0.56151992    0.48519967    0.95076030    0.21590000
opls_145-19    C    0.46106986    0.50131968    0.92640074    -0.26000000
opls_916-20    C    0.53256021    0.52934983    0.96161106    0.14420000
opls_142-21    C    0.79833994    0.83326002    0.09487984    0.06240000
opls_700-22    C    0.72857984    0.81217008    0.11533044    -0.12390000
opls_280-23    C    0.70421987    0.86223011    0.13960075    0.24460000
opls_280-24    C    0.68018969    0.73859986    0.09028965    0.28130000
opls_700-25    C    0.62960996    0.83686035    0.14379975    -0.12420000
opls_700-26    C    0.60602000    0.71549013    0.08436970    -0.15860000
opls_142-27    C    0.60937028    0.88664034    0.15193001    0.08720000
opls_280-28    C    0.57954999    0.76345022    0.12324056    0.22060000
opls_142-29    C    0.55736979    0.64751992    0.04086996    0.08710000
opls_916-30    C    0.51808011    0.91687010    0.12649059    0.13930000
opls_145-31    C    0.56054007    0.98812032    0.09937037    -0.25970000
opls_166-32    C    0.44566983    0.88910992    0.12247008    0.22180000
opls_166-33    C    0.53046993    0.02918010    0.06316051    0.22180000
opls_145-34    C    0.41558014    0.93004035    0.08467016    -0.25970000
opls_916-35    C    0.45804002    0.00087994    0.05034932    0.13870000
opls_916-36    C    0.97768034    0.04046009    0.52448078    0.12890000
opls_145-37    C    0.00997007    0.99968998    0.50795995    -0.25410000
opls_166-38    C    0.08021998    0.03076991    0.46408985    0.22340000
opls_916-39    C    0.12032983    0.10251972    0.43357088    0.14050000
opls_145-40    C    0.08800980    0.14313982    0.44973026    -0.25590000
opls_166-41    C    0.01792010    0.11210986    0.49567085    0.21130000
opls_142-42    C    0.23806981    0.19522992    0.37073016    0.04330000
opls_700-43    C    0.30783015    0.21620973    0.35475076    -0.15650000
opls_280-44    C    0.33300030    0.16646005    0.36619054    0.22060000
opls_280-45    C    0.35589002    0.29072984    0.34771078    0.31960000
opls_700-46    C    0.40762981    0.19235970    0.38098000    -0.12170000
opls_700-47    C    0.43026016    0.31471007    0.36647018    -0.15540000
opls_280-48    C    0.45725987    0.26623002    0.37811969    0.18500000
opls_142-49    C    0.47840013    0.38376982    0.39091005    0.08720000
opls_142-50    C    0.42814034    0.14377014    0.41573963    0.08720000
opls_916-51    C    0.50691024    0.50363019    0.43811049    0.13530000
opls_145-52    C    0.57817016    0.53089983    0.47054081    -0.26660000
opls_166-53    C    0.47917997    0.54862024    0.45086962    0.21590000
opls_166-54    C    0.61996023    0.60052018    0.51881071    0.22080000
opls_145-55    C    0.52036996    0.61799992    0.50105979    -0.26330000
opls_916-56    C    0.59165001    0.64509020    0.53694093    0.12830000
opls_142-57    C    0.85931028    0.94874007    0.58806967    0.03700000
opls_700-58    C    0.79078026    0.92937018    0.62583984    -0.12910000
opls_280-59    C    0.76744034    0.98052008    0.64401022    0.31840000
opls_280-60    C    0.74171030    0.85535026    0.62652108    0.31960000
opls_700-61    C    0.69278013    0.95584996    0.64999115    -0.12910000
opls_700-62    C    0.66768035    0.83258011    0.63597069    -0.12910000
opls_142-63    C    0.67227003    0.00517984    0.63323977    0.06230000
opls_280-64    C    0.64228002    0.88217003    0.65163029    0.28200000
opls_142-65    C    0.61793995    0.76386980    0.61072017    0.08710000
opls_916-66    C    0.58015997    0.03415989    0.58653018    0.13980000
opls_145-67    C    0.62223005    0.10545014    0.55792998    -0.25670000
opls_166-68    C    0.50776020    0.00554979    0.57328020    0.21760000
opls_166-69    C    0.59181996    0.14567975    0.51401972    0.21590000
opls_145-70    C    0.47731987    0.04577978    0.52888058    -0.25970000
opls_916-71    C    0.51939022    0.11668013    0.49553996    0.13870000
opls_146-72    H    0.92023006    0.83007992    0.07089958    0.10410000
opls_146-73    H    0.05723035    0.08494996    0.97103092    0.10590000
opls_144-74    H    0.16225030    0.11957988    0.90252014    0.04930000
opls_910-75    H    0.14824012    0.97907982    0.93831055    0.26630000
opls_144-76    H    0.47375982    0.27988964    0.88521098    0.06580000
opls_144-77    H    0.32660009    0.97350969    0.98715014    0.04000000
opls_146-78    H    0.54442032    0.38257998    0.91027111    0.09450000
opls_146-79    H    0.43739000    0.53429002    0.92944997    0.11120000
opls_168-80    H    0.33656989    0.43750989    0.85292048    0.33010000
opls_910-81    H    0.35063028    0.30095007    0.84531082    0.26620000
opls_910-82    H    0.46861016    0.09685001    0.97937983    0.26620000
opls_168-83    H    0.02071021    0.82987990    0.01768102    0.34330000
opls_144-84    H    0.81392979    0.79396997    0.06960998    0.06570000
opls_144-85    H    0.64969001    0.94107029    0.15660052    0.05180000
opls_144-86    H    0.50245003    0.63317035    0.03413937    0.06190000
opls_910-87    H    0.50714001    0.81877002    0.15011981    0.26590000
opls_910-88    H    0.62855002    0.61769025    0.02073024    0.26530000
opls_168-89    H    0.95541033    0.08459022    0.02449045    0.33780000
opls_168-90    H    0.65748016    0.55803984    0.99723042    0.36140000
opls_146-91    H    0.61682012    0.01176019    0.10404981    0.09750000
opls_146-92    H    0.35929024    0.90643026    0.07984049    0.11700000
opls_168-93    H    0.35694004    0.80557030    0.14534964    0.34000000
opls_168-94    H    0.61898984    0.11326995    0.04648945    0.32280000
opls_910-95    H    0.82875010    0.93475019    0.11523078    0.26620000
opls_146-96    H    0.98081006    0.94406012    0.53054054    0.11120000
opls_146-97    H    0.11719007    0.19879973    0.42837084    0.06620000
opls_144-98    H    0.22166986    0.23444970    0.37033004    0.06140000
opls_910-99    H    0.20899011    0.09411997    0.39197951    0.26620000
opls_144-100    H    0.53284031    0.39758012    0.41157038    0.06580000
opls_144-101    H    0.38821001    0.08927017    0.42314998    0.04940000
opls_146-102    H    0.60237016    0.49856990    0.46047095    0.08650000
opls_146-103    H    0.49712983    0.65130975    0.50804027    0.10410000
opls_168-104    H    0.39776014    0.55850018    0.41355014    0.33670000
opls_910-105    H    0.40979028    0.41881017    0.37486966    0.26630000
opls_910-106    H    0.52982004    0.21304979    0.43563988    0.26600000
opls_168-107    H    0.08238995    0.94448995    0.47620046    0.35230000
opls_144-108    H    0.87387979    0.90838987    0.56929093    0.04930000
opls_144-109    H    0.71231039    0.05953012    0.62262105    0.04930000
opls_144-110    H    0.56314025    0.74998004    0.61009099    0.06600000
opls_910-111    H    0.56986992    0.93713003    0.63673968    0.26610000
opls_910-112    H    0.68844028    0.73311010    0.58986052    0.26270000
opls_168-113    H    0.01755013    0.19928979    0.49190023    0.33840000
opls_168-114    H    0.71582004    0.67217001    0.57052103    0.35010000
opls_146-115    H    0.67849002    0.12969985    0.56884024    0.09770000
opls_146-116    H    0.42105028    0.02147007    0.51867090    0.10230000
opls_168-117    H    0.41932987    0.92159983    0.59362073    0.32280000
opls_168-118    H    0.67982006    0.23084012    0.50722963    0.34600000
opls_910-119    H    0.89062990    0.05035995    0.58495054    0.26620000
opls_238-120    N    0.12955998    0.01409957    0.93759064    -0.24390000
opls_238-121    N    0.40318004    0.31661005    0.85871103    -0.23550000
opls_238-122    N    0.43286015    0.04482999    0.00077049    -0.25110000
opls_238-123    N    0.84715987    0.89972995    0.09787997    -0.22650000
opls_238-124    N    0.54306022    0.87128032    0.15058984    -0.21280000
opls_238-125    N    0.57530979    0.59895006    0.00688975    -0.23560000
opls_238-126    N    0.18987006    0.12882982    0.39247036    -0.24390000
opls_238-127    N    0.46208013    0.43444980    0.39510013    -0.23920000
opls_238-128    N    0.49429002    0.16051985    0.44516089    -0.23480000
opls_238-129    N    0.90832009    0.01476998    0.56898006    -0.23210000
opls_238-130    N    0.60571002    0.98956997    0.62467072    -0.23260000
opls_238-131    N    0.63504011    0.71432994    0.58408039    -0.23560000
opls_281-132    O    0.23075012    0.98581002    0.90050022    -0.40100000
opls_281-133    O    0.27346015    0.21431971    0.84001113    -0.39110000
opls_281-134    O    0.45949033    0.16940990    0.90209028    -0.39120000
opls_167-135    O    0.05313031    0.87824007    0.99235018    -0.40210000
opls_167-136    O    0.35051012    0.40231011    0.84806999    -0.42970000
opls_281-137    O    0.74521025    0.92515024    0.15545967    -0.40110000
opls_281-138    O    0.70238019    0.69682003    0.07089958    -0.42000000
opls_281-139    O    0.51619018    0.74106007    0.13717029    -0.44280000
opls_167-140    O    0.92382982    0.03606986    0.04985996    -0.42100000
opls_167-141    O    0.63087983    0.50822970    0.97941107    -0.43360000
opls_167-142    O    0.40583994    0.81943029    0.15591036    -0.43270000
opls_167-143    O    0.57004988    0.09910992    0.03434017    -0.43980000
opls_281-144    O    0.29261027    0.10322001    0.36761996    -0.41570000
opls_281-145    O    0.33411996    0.33229019    0.33063068    -0.39430000
opls_281-146    O    0.52056011    0.28846980    0.38974986    -0.39090000
opls_167-147    O    0.11373011    0.99281024    0.44760026    -0.43500000
opls_167-148    O    0.40930009    0.52149014    0.41204040    -0.43280000
opls_281-149    O    0.80905987    0.04338971    0.64997033    -0.38980000
opls_281-150    O    0.76358022    0.81320002    0.61538027    -0.39020000
opls_281-151    O    0.57912025    0.86145009    0.66157967    -0.44280000
opls_167-152    O    0.98493014    0.15081976    0.51486012    -0.43810000
opls_167-153    O    0.68890020    0.62238994    0.55158017    -0.42430000
opls_167-154    O    0.46827017    0.93568019    0.60511109    -0.43990000
opls_167-155    O    0.63109009    0.21539011    0.48253094    -0.43310000
