#======================================================================
# Crystal Data Generated By AuToFF
#----------------------------------------------------------------------

data_AuToFF_phase_1

_cell_length_a                         37.2861
_cell_length_b                         37.2861
_cell_length_c                         3.5349
_cell_angle_alpha                      90.00
_cell_angle_beta                       90.00
_cell_angle_gamma                      120.00
_symmetry_space_group_name_H-M_alt     'P 1'
_symmetry_space_group_IT_number        1

loop_
_space_group_symop_operation_xyz
   'x, y, z'

loop_
   _atom_site_label
   _atom_site_type_symbol
   _atom_site_fract_x
   _atom_site_fract_y
   _atom_site_fract_z
   _atom_site_charge
opls_143-0    C    0.54800999    0.61814002    0.50000000    0.00600000
opls_700-1    C    0.61328014    0.36679001    0.50000000    -0.00610000
opls_523-2    C    0.62960006    0.40978009    0.50000000    -0.07910000
opls_145-3    C    0.60324001    0.42630992    0.50000000    -0.14210000
opls_145-4    C    0.56010010    0.39995002    0.50000000    0.22570000
opls_145-5    C    0.54382014    0.35708010    0.50000000    -0.11790000
opls_523-6    C    0.57020003    0.34057009    0.50000000    -0.07910000
opls_141-7    C    0.48204995    0.52595003    0.50000000    0.26220000
opls_142-8    C    0.54214997    0.51714007    0.50000000    0.04070000
opls_531-9    C    0.35890989    0.65064999    0.50000000    0.41260000
opls_142-10    C    0.08956005    0.54446000    0.50000000    0.00190000
opls_143-11    C    0.38186004    0.92986992    0.50000000    0.00600000
opls_700-12    C    0.63321015    0.24649009    0.50000000    -0.00610000
opls_523-13    C    0.59022003    0.21981988    0.50000000    -0.09880000
opls_145-14    C    0.57369013    0.17693014    0.50000000    -0.14210000
opls_145-15    C    0.60005005    0.16015009    0.50000000    0.22570000
opls_145-16    C    0.64292014    0.18674009    0.50000000    -0.11790000
opls_523-17    C    0.65943008    0.22963013    0.50000000    -0.07910000
opls_141-18    C    0.47405015    0.95610007    0.50000000    0.26220000
opls_142-19    C    0.48285989    0.02500998    0.50000000    0.04070000
opls_531-20    C    0.34934996    0.70826005    0.50000000    0.41260000
opls_142-21    C    0.45553997    0.54510012    0.50000000    0.00190000
opls_143-22    C    0.07012998    0.45199006    0.50000000    0.00600000
opls_700-23    C    0.75350998    0.38671990    0.50000000    -0.00610000
opls_523-24    C    0.78017991    0.37040003    0.50000000    -0.07910000
opls_145-25    C    0.82306987    0.39675993    0.50000000    -0.14210000
opls_145-26    C    0.83984986    0.43989990    0.50000000    0.22570000
opls_145-27    C    0.81326014    0.45618012    0.50000000    -0.11790000
opls_523-28    C    0.77037004    0.42980009    0.50000000    -0.07910000
opls_141-29    C    0.04389989    0.51794990    0.50000000    0.26220000
opls_142-30    C    0.97498986    0.45784995    0.50000000    0.04070000
opls_531-31    C    0.29173988    0.64108996    0.50000000    0.41260000
opls_142-32    C    0.45489998    0.91043988    0.50000000    0.00190000
opls_143-33    C    0.45199001    0.38185998    0.50000000    0.00600000
opls_700-34    C    0.38671986    0.63320999    0.50000000    -0.00610000
opls_523-35    C    0.37039994    0.59021991    0.50000000    -0.07910000
opls_145-36    C    0.39675999    0.57369008    0.50000000    -0.14210000
opls_145-37    C    0.43989990    0.60004998    0.50000000    0.22570000
opls_145-38    C    0.45617986    0.64291990    0.50000000    -0.11790000
opls_523-39    C    0.42979997    0.65942991    0.50000000    -0.07910000
opls_141-40    C    0.51795005    0.47404997    0.50000000    0.26220000
opls_142-41    C    0.45785003    0.48285993    0.50000000    0.04070000
opls_531-42    C    0.64109011    0.34935001    0.50000000    0.41260000
opls_142-43    C    0.91043995    0.45554000    0.50000000    0.00190000
opls_143-44    C    0.61813996    0.07013008    0.50000000    0.00600000
opls_700-45    C    0.36678985    0.75350991    0.50000000    -0.00610000
opls_523-46    C    0.40977997    0.78018012    0.50000000    -0.09880000
opls_145-47    C    0.42630987    0.82306986    0.50000000    -0.14210000
opls_145-48    C    0.39994995    0.83984991    0.50000000    0.22570000
opls_145-49    C    0.35707986    0.81325991    0.50000000    -0.11790000
opls_523-50    C    0.34056992    0.77036987    0.50000000    -0.07910000
opls_141-51    C    0.52594985    0.04389993    0.50000000    0.26220000
opls_142-52    C    0.51714011    0.97499002    0.50000000    0.04070000
opls_531-53    C    0.65065004    0.29173995    0.50000000    0.41260000
opls_142-54    C    0.54446003    0.45489988    0.50000000    0.00190000
opls_143-55    C    0.92987002    0.54800994    0.50000000    0.00600000
opls_700-56    C    0.24649002    0.61328010    0.50000000    -0.00610000
opls_523-57    C    0.21982009    0.62959997    0.50000000    -0.07910000
opls_145-58    C    0.17693013    0.60324007    0.50000000    -0.14210000
opls_145-59    C    0.16015014    0.56010010    0.50000000    0.22570000
opls_145-60    C    0.18673986    0.54381988    0.50000000    -0.11790000
opls_523-61    C    0.22962996    0.57019991    0.50000000    -0.07910000
opls_141-62    C    0.95610011    0.48205010    0.50000000    0.26220000
opls_142-63    C    0.02501014    0.54215005    0.50000000    0.04070000
opls_531-64    C    0.70826012    0.35891004    0.50000000    0.41280000
opls_142-65    C    0.54510002    0.08956012    0.50000000    0.00190000
MOF2_O_3-66    O    0.52623005    0.54397999    0.50000000    -0.06690000
opls_180-67    O    0.55754998    0.58597999    0.50000000    -0.11550000
MOF2_O_3-68    O    0.45601996    0.98225000    0.50000000    -0.06690000
opls_180-69    O    0.41401984    0.97156984    0.50000000    -0.11550000
MOF2_O_3-70    O    0.01774999    0.47377001    0.50000000    -0.06690000
opls_180-71    O    0.02843003    0.44244986    0.50000000    -0.11550000
MOF2_O_3-72    O    0.47376995    0.45602001    0.50000000    -0.06690000
opls_180-73    O    0.44245002    0.41402001    0.50000000    -0.11540000
MOF2_O_3-74    O    0.54398004    0.01775000    0.50000000    -0.06690000
opls_180-75    O    0.58598001    0.02842985    0.50000000    -0.11550000
MOF2_O_3-76    O    0.98225001    0.52622999    0.50000000    -0.06690000
opls_180-77    O    0.97156997    0.55755014    0.50000000    -0.11550000
opls_520-78    N    0.31740001    0.62529997    0.50000000    -0.37320000
opls_750-79    N    0.11638996    0.53222986    0.50000000    -0.25550000
opls_520-80    N    0.37470008    0.69209999    0.50000000    -0.37320000
opls_750-81    N    0.46776985    0.58415996    0.50000000    -0.25550000
opls_520-82    N    0.30789991    0.68260004    0.50000000    -0.37310000
opls_750-83    N    0.41584003    0.88360987    0.50000000    -0.25550000
opls_520-84    N    0.68259999    0.37470003    0.50000000    -0.37320000
opls_750-85    N    0.88361004    0.46777014    0.50000000    -0.25550000
opls_520-86    N    0.62529992    0.30790001    0.50000000    -0.37320000
opls_750-87    N    0.53223015    0.41584004    0.50000000    -0.25550000
opls_520-88    N    0.69210009    0.31739996    0.50000000    -0.37320000
opls_750-89    N    0.58415997    0.11639013    0.50000000    -0.25550000
opls_144-90    H    0.51501007    0.61091007    0.44043113    0.02400000
opls_144-91    H    0.57330985    0.65134988    0.55956887    0.02400000
opls_526-92    H    0.66457005    0.43146992    0.50000000    0.04770000
opls_146-93    H    0.61673001    0.46131008    0.50000000    0.04770000
opls_146-94    H    0.50885000    0.33538996    0.50000000    0.04770000
opls_526-95    H    0.55672987    0.30556993    0.50000000    0.04770000
opls_144-96    H    0.57708015    0.53014009    0.50000000    0.02580000
opls_144-97    H    0.10036998    0.57896993    0.50000000    0.02820000
opls_144-98    H    0.38909006    0.90409997    0.44043113    0.02400000
opls_144-99    H    0.34865003    0.92195000    0.55956887    0.02400000
opls_526-100    H    0.56853003    0.23308995    0.50000000    0.04770000
opls_146-101    H    0.53869006    0.15541993    0.50000000    0.04770000
opls_146-102    H    0.66461001    0.17346011    0.50000000    0.04770000
opls_526-103    H    0.69442998    0.25115985    0.50000000    0.04770000
opls_144-104    H    0.46985999    0.04692991    0.50000000    0.02580000
opls_144-105    H    0.42103005    0.52140012    0.50000000    0.02820000
opls_144-106    H    0.09589987    0.48498996    0.44043113    0.02400000
opls_144-107    H    0.07805003    0.42668991    0.55956887    0.02400000
opls_526-108    H    0.76690983    0.33542991    0.50000000    0.04770000
opls_146-109    H    0.84457992    0.38326999    0.50000000    0.04770000
opls_146-110    H    0.82653999    0.49114993    0.50000000    0.04770000
opls_526-111    H    0.74884000    0.44326991    0.50000000    0.04770000
opls_144-112    H    0.95306992    0.42292009    0.50000000    0.02580000
opls_144-113    H    0.47859997    0.89962996    0.50000000    0.02820000
opls_144-114    H    0.48498993    0.38908993    0.44043113    0.02400000
opls_144-115    H    0.42669015    0.34865012    0.55956887    0.02400000
opls_526-116    H    0.33542995    0.56853008    0.50000000    0.04770000
opls_146-117    H    0.38326999    0.53868992    0.50000000    0.04770000
opls_146-118    H    0.49115000    0.66461004    0.50000000    0.04770000
opls_526-119    H    0.44327013    0.69443007    0.50000000    0.04770000
opls_144-120    H    0.42291985    0.46985991    0.50000000    0.02580000
opls_144-121    H    0.89963002    0.42103007    0.50000000    0.02820000
opls_144-122    H    0.61090994    0.09590003    0.44043113    0.02400000
opls_144-123    H    0.65134997    0.07805000    0.55956887    0.02400000
opls_526-124    H    0.43146997    0.76691005    0.50000000    0.04770000
opls_146-125    H    0.46130994    0.84458007    0.50000000    0.04770000
opls_146-126    H    0.33538999    0.82653989    0.50000000    0.04770000
opls_526-127    H    0.30557002    0.74884015    0.50000000    0.04770000
opls_144-128    H    0.53014001    0.95307009    0.50000000    0.02580000
opls_144-129    H    0.57896995    0.47859988    0.50000000    0.02820000
opls_144-130    H    0.90410013    0.51501004    0.44043113    0.02400000
opls_144-131    H    0.92194997    0.57331009    0.55956887    0.02400000
opls_526-132    H    0.23309017    0.66457009    0.50000000    0.04770000
opls_146-133    H    0.15542008    0.61673001    0.50000000    0.04770000
opls_146-134    H    0.17346001    0.50885007    0.50000000    0.04770000
opls_526-135    H    0.25116000    0.55673009    0.50000000    0.04770000
opls_144-136    H    0.04693008    0.57707991    0.50000000    0.02580000
opls_144-137    H    0.52140003    0.10037004    0.50000000    0.02820000
