#======================================================================
# Crystal Data Generated By AuToFF
#----------------------------------------------------------------------

data_AuToFF_phase_1

_cell_length_a                         18.5000
_cell_length_b                         26.3300
_cell_length_c                         7.8010
_cell_angle_alpha                      90.00
_cell_angle_beta                       96.09
_cell_angle_gamma                      90.00
_symmetry_space_group_name_H-M_alt     'P 1'
_symmetry_space_group_IT_number        1

loop_
_space_group_symop_operation_xyz
   'x, y, z'

loop_
   _atom_site_label
   _atom_site_type_symbol
   _atom_site_fract_x
   _atom_site_fract_y
   _atom_site_fract_z
   _atom_site_charge
opls_145-0    C    0.57730007    0.04579985    0.94590048    -0.14790000
opls_700-1    C    0.35009972    0.95260008    0.09929999    0.06380000
opls_700-2    C    0.31249987    0.09809989    0.13269950    0.06330000
opls_145-3    C    0.24850006    0.10079985    0.21840015    -0.17980000
opls_145-4    C    0.24700025    0.19420015    0.21010055    0.18400000
opls_145-5    C    0.34120024    0.14539992    0.08500064    -0.12820000
opls_145-6    C    0.21599974    0.14769996    0.25439990    -0.20240000
opls_145-7    C    0.31039987    0.19200000    0.12719995    -0.17890000
opls_700-8    C    0.03120006    0.54750019    0.45249968    0.02190000
opls_700-9    C    0.93580003    0.59650019    0.61010055    0.06140000
opls_145-10    C    0.86000014    0.60500000    0.59480083    -0.16930000
opls_145-11    C    0.83089994    0.65279985    0.63529973    -0.16930000
opls_700-12    C    0.87689982    0.69360008    0.69190022    0.05090000
opls_145-13    C    0.95200017    0.68409989    0.71590048    -0.13470000
opls_145-14    C    0.98059974    0.63639992    0.67940054    -0.13360000
opls_142-15    C    0.84980005    0.74620015    0.72680031    0.08100000
opls_145-16    C    0.07730007    0.54579985    0.94590048    -0.14790000
opls_700-17    C    0.85010026    0.45260008    0.09929999    0.06390000
opls_700-18    C    0.81249987    0.59809989    0.13269950    0.06330000
opls_145-19    C    0.74850006    0.60079985    0.21840015    -0.17980000
opls_145-20    C    0.74700025    0.69420015    0.21010055    0.18380000
opls_145-21    C    0.84120024    0.64539992    0.08500064    -0.12810000
opls_145-22    C    0.71599974    0.64769996    0.25439990    -0.20240000
opls_145-23    C    0.81039987    0.69200000    0.12719995    -0.17890000
opls_700-24    C    0.53120006    0.04749981    0.45249968    0.02190000
opls_700-25    C    0.43580003    0.09650019    0.61010055    0.06140000
opls_145-26    C    0.36000014    0.10500000    0.59480083    -0.16930000
opls_145-27    C    0.33089994    0.15279985    0.63529973    -0.16930000
opls_700-28    C    0.37689982    0.19360008    0.69190022    0.05100000
opls_145-29    C    0.45200017    0.18409989    0.71590048    -0.13470000
opls_145-30    C    0.48059974    0.13639992    0.67940054    -0.13370000
opls_142-31    C    0.34980005    0.24620015    0.72680031    0.08100000
opls_145-32    C    0.42269993    0.04579985    0.05409952    -0.14790000
opls_700-33    C    0.64989974    0.95260008    0.90070001    0.06380000
opls_700-34    C    0.68750013    0.09809989    0.86730050    0.06330000
opls_145-35    C    0.75149994    0.10079985    0.78159985    -0.17970000
opls_145-36    C    0.75299981    0.19420015    0.78990073    0.18380000
opls_145-37    C    0.65879982    0.14539992    0.91500064    -0.12820000
opls_145-38    C    0.78399972    0.14769996    0.74560010    -0.20240000
opls_145-39    C    0.68960013    0.19200000    0.87280005    -0.17890000
opls_700-40    C    0.96879994    0.54750019    0.54750032    0.02190000
opls_700-41    C    0.06420003    0.59650019    0.38990073    0.06140000
opls_145-42    C    0.13999992    0.60500000    0.40520046    -0.16930000
opls_145-43    C    0.16910006    0.65279985    0.36470027    -0.16930000
opls_700-44    C    0.12310018    0.69360008    0.30809978    0.05090000
opls_145-45    C    0.04799983    0.68409989    0.28409952    -0.13470000
opls_145-46    C    0.01939977    0.63639992    0.32060075    -0.13370000
opls_142-47    C    0.15019995    0.74620015    0.27319969    0.08100000
opls_145-48    C    0.92269993    0.54579985    0.05409952    -0.14790000
opls_700-49    C    0.14989974    0.45260008    0.90070001    0.06380000
opls_700-50    C    0.18750013    0.59809989    0.86730050    0.06330000
opls_145-51    C    0.25149994    0.60079985    0.78159985    -0.17980000
opls_145-52    C    0.25299981    0.69420015    0.78990073    0.18380000
opls_145-53    C    0.15879982    0.64539992    0.91500064    -0.12820000
opls_145-54    C    0.28399972    0.64769996    0.74560010    -0.20240000
opls_145-55    C    0.18960013    0.69200000    0.87280005    -0.17890000
opls_700-56    C    0.46879994    0.04749981    0.54750032    0.02190000
opls_700-57    C    0.56420003    0.09650019    0.38990073    0.06140000
opls_145-58    C    0.63999992    0.10500000    0.40520046    -0.16930000
opls_145-59    C    0.66910006    0.15279985    0.36470027    -0.16930000
opls_700-60    C    0.62310018    0.19360008    0.30809978    0.05090000
opls_145-61    C    0.54799983    0.18409989    0.28409952    -0.13470000
opls_145-62    C    0.51939977    0.13639992    0.32060075    -0.13370000
opls_142-63    C    0.65019995    0.24620015    0.27319969    0.08100000
opls_145-64    C    0.42269993    0.95420015    0.05409952    -0.14780000
opls_700-65    C    0.64989974    0.04739992    0.90070001    0.06380000
opls_700-66    C    0.68750013    0.90190011    0.86730050    0.06330000
opls_145-67    C    0.75149994    0.89920015    0.78159985    -0.17980000
opls_145-68    C    0.75299981    0.80579985    0.78990073    0.18380000
opls_145-69    C    0.65879982    0.85460008    0.91500064    -0.12820000
opls_145-70    C    0.78399972    0.85230004    0.74560010    -0.20240000
opls_145-71    C    0.68960013    0.80800000    0.87280005    -0.17890000
opls_700-72    C    0.96879994    0.45249981    0.54750032    0.02190000
opls_700-73    C    0.06420003    0.40350019    0.38990073    0.06140000
opls_145-74    C    0.13999992    0.39500000    0.40520046    -0.16930000
opls_145-75    C    0.16910006    0.34720015    0.36470027    -0.16930000
opls_700-76    C    0.12310018    0.30639992    0.30809978    0.05090000
opls_145-77    C    0.04799983    0.31590011    0.28409952    -0.13470000
opls_145-78    C    0.01939977    0.36360008    0.32060075    -0.13370000
opls_142-79    C    0.15019995    0.25379985    0.27319969    0.08100000
opls_145-80    C    0.92269993    0.45420015    0.05409952    -0.14790000
opls_700-81    C    0.14989974    0.54739992    0.90070001    0.06380000
opls_700-82    C    0.18750013    0.40190011    0.86730050    0.06330000
opls_145-83    C    0.25149994    0.39920015    0.78159985    -0.17980000
opls_145-84    C    0.25299981    0.30579985    0.78990073    0.18380000
opls_145-85    C    0.15879982    0.35460008    0.91500064    -0.12820000
opls_145-86    C    0.28399972    0.35230004    0.74560010    -0.20240000
opls_145-87    C    0.18960013    0.30800000    0.87280005    -0.17880000
opls_700-88    C    0.46879994    0.95250019    0.54750032    0.02190000
opls_700-89    C    0.56420003    0.90350019    0.38990073    0.06140000
opls_145-90    C    0.63999992    0.89500000    0.40520046    -0.16930000
opls_145-91    C    0.66910006    0.84720015    0.36470027    -0.16930000
opls_700-92    C    0.62310018    0.80639992    0.30809978    0.05090000
opls_145-93    C    0.54799983    0.81590011    0.28409952    -0.13460000
opls_145-94    C    0.51939977    0.86360008    0.32060075    -0.13370000
opls_142-95    C    0.65019995    0.75379985    0.27319969    0.08100000
opls_145-96    C    0.57730007    0.95420015    0.94590048    -0.14790000
opls_700-97    C    0.35009972    0.04739992    0.09929999    0.06380000
opls_700-98    C    0.31249987    0.90190011    0.13269950    0.06330000
opls_145-99    C    0.24850006    0.89920015    0.21840015    -0.17980000
opls_145-100    C    0.24700025    0.80579985    0.21010055    0.18380000
opls_145-101    C    0.34120024    0.85460008    0.08500064    -0.12810000
opls_145-102    C    0.21599974    0.85230004    0.25439990    -0.20240000
opls_145-103    C    0.31039987    0.80800000    0.12719995    -0.17880000
opls_700-104    C    0.03120006    0.45249981    0.45249968    0.02190000
opls_700-105    C    0.93580003    0.40350019    0.61010055    0.06140000
opls_145-106    C    0.86000014    0.39500000    0.59480083    -0.16920000
opls_145-107    C    0.83089994    0.34720015    0.63529973    -0.16920000
opls_700-108    C    0.87689982    0.30639992    0.69190022    0.05090000
opls_145-109    C    0.95200017    0.31590011    0.71590048    -0.13470000
opls_145-110    C    0.98059974    0.36360008    0.67940054    -0.13370000
opls_142-111    C    0.84980005    0.25379985    0.72680031    0.08110000
opls_145-112    C    0.07730007    0.45420015    0.94590048    -0.14790000
opls_700-113    C    0.85010026    0.54739992    0.09929999    0.06390000
opls_700-114    C    0.81249987    0.40190011    0.13269950    0.06330000
opls_145-115    C    0.74850006    0.39920015    0.21840015    -0.17980000
opls_145-116    C    0.74700025    0.30579985    0.21010055    0.18380000
opls_145-117    C    0.84120024    0.35460008    0.08500064    -0.12820000
opls_145-118    C    0.71599974    0.35230004    0.25439990    -0.20240000
opls_145-119    C    0.81039987    0.30800000    0.12719995    -0.17890000
opls_700-120    C    0.53120006    0.95250019    0.45249968    0.02190000
opls_700-121    C    0.43580003    0.90350019    0.61010055    0.06140000
opls_145-122    C    0.36000014    0.89500000    0.59480083    -0.16930000
opls_145-123    C    0.33089994    0.84720015    0.63529973    -0.16930000
opls_700-124    C    0.37689982    0.80639992    0.69190022    0.05090000
opls_145-125    C    0.45200017    0.81590011    0.71590048    -0.13470000
opls_145-126    C    0.48059974    0.86360008    0.67940054    -0.13370000
opls_142-127    C    0.34980005    0.75379985    0.72680031    0.08100000
opls_700-128    C    0.53939976    0.00000000    0.97350006    0.06250000
opls_145-129    C    0.31460011    0.00000000    0.11529973    -0.13550000
opls_145-130    C    0.56139981    0.00000000    0.41060075    -0.09790000
opls_700-131    C    0.03939976    0.50000000    0.97350006    0.06240000
opls_145-132    C    0.81460011    0.50000000    0.11529973    -0.13550000
opls_145-133    C    0.06139981    0.50000000    0.41060075    -0.09800000
opls_700-134    C    0.46060024    0.00000000    0.02649994    0.06240000
opls_145-135    C    0.68539989    0.00000000    0.88470027    -0.13540000
opls_145-136    C    0.43859971    0.00000000    0.58940054    -0.09790000
opls_700-137    C    0.96060024    0.50000000    0.02649994    0.06240000
opls_145-138    C    0.18539989    0.50000000    0.88470027    -0.13550000
opls_145-139    C    0.93859971    0.50000000    0.58940054    -0.09800000
opls_750-140    N    0.21770011    0.24369996    0.25060075    -0.32870000
opls_750-141    N    0.71770011    0.74369996    0.25060075    -0.32890000
opls_750-142    N    0.78229995    0.24369996    0.74940054    -0.32890000
opls_750-143    N    0.28229995    0.74369996    0.74940054    -0.32880000
opls_750-144    N    0.78229995    0.75630004    0.74940054    -0.32880000
opls_750-145    N    0.28229995    0.25630004    0.74940054    -0.32870000
opls_750-146    N    0.21770011    0.75630004    0.25060075    -0.32890000
opls_750-147    N    0.71770011    0.25630004    0.25060075    -0.32870000
opls_146-148    H    0.54979997    0.08100000    0.95570066    0.23980000
opls_146-149    H    0.22390001    0.06690011    0.26409952    0.11980000
opls_146-150    H    0.38850002    0.14750019    0.01610030    0.08960000
opls_146-151    H    0.16820004    0.14739992    0.32299987    0.11770000
opls_146-152    H    0.33599985    0.22700000    0.09280005    0.11290000
opls_146-153    H    0.82319986    0.57520015    0.54599974    0.11810000
opls_146-154    H    0.77259977    0.65820015    0.61870053    0.11730000
opls_146-155    H    0.98929998    0.71400000    0.76260023    0.11370000
opls_146-156    H    0.03870008    0.63139992    0.69719995    0.09880000
opls_144-157    H    0.88999998    0.77620015    0.74430063    0.10370000
opls_146-158    H    0.04979997    0.58100000    0.95570066    0.23980000
opls_146-159    H    0.72390001    0.56690011    0.26409952    0.11990000
opls_146-160    H    0.88850002    0.64749981    0.01610030    0.08960000
opls_146-161    H    0.66820004    0.64739992    0.32299987    0.11770000
opls_146-162    H    0.83599985    0.72700000    0.09280005    0.11290000
opls_146-163    H    0.32319986    0.07520015    0.54599974    0.11810000
opls_146-164    H    0.27259977    0.15820015    0.61870053    0.11740000
opls_146-165    H    0.48929998    0.21400000    0.76260023    0.11370000
opls_146-166    H    0.53870008    0.13139992    0.69719995    0.09870000
opls_144-167    H    0.38999998    0.27620015    0.74430063    0.10370000
opls_146-168    H    0.45020009    0.08100000    0.04430063    0.23980000
opls_146-169    H    0.77609999    0.06690011    0.73590048    0.11980000
opls_146-170    H    0.61150003    0.14750019    0.98390099    0.08960000
opls_146-171    H    0.83179996    0.14739992    0.67700013    0.11770000
opls_146-172    H    0.66400015    0.22700000    0.90719995    0.11290000
opls_146-173    H    0.17680014    0.57520015    0.45400026    0.11810000
opls_146-174    H    0.22739975    0.65820015    0.38130076    0.11690000
opls_146-175    H    0.01070002    0.71400000    0.23739977    0.11370000
opls_146-176    H    0.96129992    0.63139992    0.30280005    0.09410000
opls_144-177    H    0.11000007    0.77620015    0.25570066    0.10370000
opls_146-178    H    0.95020009    0.58100000    0.04430063    0.23990000
opls_146-179    H    0.27609999    0.56690011    0.73590048    0.12000000
opls_146-180    H    0.11150003    0.64749981    0.98390099    0.08960000
opls_146-181    H    0.33179996    0.64739992    0.67700013    0.11770000
opls_146-182    H    0.16400015    0.72700000    0.90719995    0.11300000
opls_146-183    H    0.67680014    0.07520015    0.45400026    0.11810000
opls_146-184    H    0.72739975    0.15820015    0.38130076    0.11700000
opls_146-185    H    0.51070002    0.21400000    0.23739977    0.11370000
opls_146-186    H    0.46129992    0.13139992    0.30280005    0.09410000
opls_144-187    H    0.61000007    0.27620015    0.25570066    0.10370000
opls_146-188    H    0.45020009    0.91900000    0.04430063    0.23980000
opls_146-189    H    0.77609999    0.93309989    0.73590048    0.11980000
opls_146-190    H    0.61150003    0.85250019    0.98390099    0.08960000
opls_146-191    H    0.83179996    0.85260008    0.67700013    0.11770000
opls_146-192    H    0.66400015    0.77300000    0.90719995    0.11290000
opls_146-193    H    0.17680014    0.42479985    0.45400026    0.11820000
opls_146-194    H    0.22739975    0.34179985    0.38130076    0.11690000
opls_146-195    H    0.01070002    0.28600000    0.23739977    0.11370000
opls_146-196    H    0.96129992    0.36860008    0.30280005    0.09410000
opls_144-197    H    0.11000007    0.22379985    0.25570066    0.10370000
opls_146-198    H    0.95020009    0.41900000    0.04430063    0.23980000
opls_146-199    H    0.27609999    0.43309989    0.73590048    0.11980000
opls_146-200    H    0.11150003    0.35250019    0.98390099    0.08960000
opls_146-201    H    0.33179996    0.35260008    0.67700013    0.11770000
opls_146-202    H    0.16400015    0.27300000    0.90719995    0.11300000
opls_146-203    H    0.67680014    0.92479985    0.45400026    0.11810000
opls_146-204    H    0.72739975    0.84179985    0.38130076    0.11690000
opls_146-205    H    0.51070002    0.78600000    0.23739977    0.11370000
opls_146-206    H    0.46129992    0.86860008    0.30280005    0.09410000
opls_144-207    H    0.61000007    0.72379985    0.25570066    0.10370000
opls_146-208    H    0.54979997    0.91900000    0.95570066    0.23990000
opls_146-209    H    0.22390001    0.93309989    0.26409952    0.11980000
opls_146-210    H    0.38850002    0.85250019    0.01610030    0.08960000
opls_146-211    H    0.16820004    0.85260008    0.32299987    0.11770000
opls_146-212    H    0.33599985    0.77300000    0.09280005    0.11290000
opls_146-213    H    0.82319986    0.42479985    0.54599974    0.11810000
opls_146-214    H    0.77259977    0.34179985    0.61870053    0.11730000
opls_146-215    H    0.98929998    0.28600000    0.76260023    0.11370000
opls_146-216    H    0.03870008    0.36860008    0.69719995    0.09880000
opls_144-217    H    0.88999998    0.22379985    0.74430063    0.10370000
opls_146-218    H    0.04979997    0.41900000    0.95570066    0.23980000
opls_146-219    H    0.72390001    0.43309989    0.26409952    0.11990000
opls_146-220    H    0.88850002    0.35250019    0.01610030    0.08970000
opls_146-221    H    0.66820004    0.35260008    0.32299987    0.11770000
opls_146-222    H    0.83599985    0.27300000    0.09280005    0.11290000
opls_146-223    H    0.32319986    0.92479985    0.54599974    0.11810000
opls_146-224    H    0.27259977    0.84179985    0.61870053    0.11730000
opls_146-225    H    0.48929998    0.78600000    0.76260023    0.11380000
opls_146-226    H    0.53870008    0.86860008    0.69719995    0.09870000
opls_144-227    H    0.38999998    0.72379985    0.74430063    0.10370000
opls_146-228    H    0.25829980    0.00000000    0.13739977    0.09440000
opls_146-229    H    0.60769988    0.00000000    0.33640067    0.11210000
opls_146-230    H    0.75829980    0.50000000    0.13739977    0.09440000
opls_146-231    H    0.10769988    0.50000000    0.33640067    0.11200000
opls_146-232    H    0.74170020    0.00000000    0.86260023    0.09440000
opls_146-233    H    0.39230018    0.00000000    0.66360062    0.11200000
opls_146-234    H    0.24170020    0.50000000    0.86260023    0.09440000
opls_146-235    H    0.89230018    0.50000000    0.66360062    0.11200000
