#======================================================================
# Crystal Data Generated By AuToFF
#----------------------------------------------------------------------

data_AuToFF_phase_1

_cell_length_a                         23.4685
_cell_length_b                         23.4317
_cell_length_c                         17.2542
_cell_angle_alpha                      90.00
_cell_angle_beta                       90.00
_cell_angle_gamma                      120.00
_symmetry_space_group_name_H-M_alt     'P 1'
_symmetry_space_group_IT_number        1

loop_
_space_group_symop_operation_xyz
   'x, y, z'

loop_
   _atom_site_label
   _atom_site_type_symbol
   _atom_site_fract_x
   _atom_site_fract_y
   _atom_site_fract_z
   _atom_site_charge
opls_916-0    C    0.06936007    0.03747011    0.45200009    0.17620000
opls_916-1    C    0.96170025    0.03197010    0.45200009    0.17490000
opls_916-2    C    0.96717005    0.93119992    0.45200009    0.17760000
opls_145-3    C    0.10118002    0.09340990    0.49968993    -0.16570000
opls_145-4    C    0.90585017    0.00789003    0.49968993    -0.17200000
opls_145-5    C    0.99121017    0.89933035    0.49968993    -0.17660000
opls_145-6    C    0.16944979    0.12931984    0.50224003    -0.12840000
opls_145-7    C    0.86999988    0.04037016    0.50224003    -0.12840000
opls_145-8    C    0.95878027    0.83095013    0.50224003    -0.12840000
opls_700-9    C    0.20765003    0.11131978    0.45657985    0.05390000
opls_700-10    C    0.88796003    0.09661992    0.45657985    0.05390000
opls_700-11    C    0.90262006    0.79269994    0.45657985    0.05390000
opls_145-12    C    0.17521000    0.05534993    0.40848025    -0.12310000
opls_145-13    C    0.94383986    0.12009978    0.40848025    -0.12310000
opls_145-14    C    0.87918003    0.82518008    0.40848025    -0.12310000
opls_145-15    C    0.10720007    0.01868011    0.40661984    -0.15850000
opls_145-16    C    0.98046000    0.08865992    0.40661984    -0.18830000
opls_145-17    C    0.91057011    0.89330996    0.40661984    -0.16600000
opls_145-18    C    0.38455008    0.18249017    0.41218022    0.20000000
opls_145-19    C    0.81691031    0.20264026    0.41218022    0.20000000
opls_145-20    C    0.79677003    0.61552006    0.41218022    0.19960000
opls_145-21    C    0.42087007    0.16005009    0.36994993    -0.17140000
opls_145-22    C    0.83931011    0.26145005    0.36994993    -0.17140000
opls_145-23    C    0.73805999    0.57914000    0.36994993    -0.17140000
opls_145-24    C    0.48916028    0.19646021    0.36711004    -0.12840000
opls_145-25    C    0.80295001    0.29343986    0.36711004    -0.12840000
opls_145-26    C    0.70611008    0.51074992    0.36711004    -0.12840000
opls_700-27    C    0.52411009    0.25722981    0.40587973    0.06320000
opls_700-28    C    0.74227003    0.26767987    0.40587973    0.06330000
opls_700-29    C    0.73184026    0.47574030    0.40587973    0.06330000
opls_145-30    C    0.48763003    0.28000991    0.44723024    -0.12800000
opls_145-31    C    0.71953017    0.20835019    0.44723024    -0.12800000
opls_145-32    C    0.79108016    0.51227017    0.44723024    -0.12620000
opls_145-33    C    0.41944997    0.24388019    0.45016981    -0.17380000
opls_145-34    C    0.75561004    0.17620022    0.45016981    -0.17380000
opls_145-35    C    0.82317018    0.58056021    0.45016981    -0.17370000
opls_700-36    C    0.59665018    0.29622017    0.40376024    0.07430000
opls_700-37    C    0.70335019    0.30135009    0.40376024    0.07410000
opls_700-38    C    0.69822025    0.40308022    0.40376024    0.07430000
opls_145-39    C    0.73456007    0.37036009    0.40357015    -0.17490000
opls_145-40    C    0.62931998    0.36533021    0.40357015    -0.17490000
opls_145-41    C    0.63434995    0.26496018    0.40357015    -0.17450000
opls_142-42    C    0.27902997    0.15079011    0.45948001    0.07150000
opls_142-43    C    0.84856007    0.12866000    0.45948001    0.07150000
opls_142-44    C    0.87064013    0.72119988    0.45948001    0.07120000
opls_750-45    N    0.31607986    0.14246988    0.41101007    -0.28060000
opls_750-46    N    0.85685991    0.17406990    0.41101007    -0.28350000
opls_750-47    N    0.82529992    0.68409000    0.41101007    -0.28150000
opls_239-48    N    0.00000000    0.00000000    0.44983019    -0.11690000
opls_146-49    H    0.07184004    0.10774017    0.53496018    0.10870000
opls_146-50    H    0.89153996    0.96488000    0.53496018    0.10320000
opls_146-51    H    0.03573984    0.92873993    0.53496018    0.10490000
opls_146-52    H    0.19395997    0.17222983    0.54024006    0.10990000
opls_146-53    H    0.82714996    0.02200002    0.54024006    0.10860000
opls_146-54    H    0.97711996    0.80639993    0.54024006    0.10860000
opls_146-55    H    0.20500008    0.04192984    0.37266984    0.10820000
opls_146-56    H    0.95723024    0.16336014    0.37266984    0.10810000
opls_146-57    H    0.83599025    0.79535015    0.37266984    0.10820000
opls_146-58    H    0.08218977    0.97581989    0.36987980    0.12420000
opls_146-59    H    0.02483990    0.10719022    0.36987980    0.12260000
opls_146-60    H    0.89209018    0.91834999    0.36987980    0.10820000
opls_146-61    H    0.39373989    0.11341019    0.33895979    0.10830000
opls_146-62    H    0.88588016    0.28092009    0.33895979    0.10830000
opls_146-63    H    0.71860990    0.60630985    0.33895979    0.11260000
opls_146-64    H    0.51587983    0.17840003    0.33261988    0.10980000
opls_146-65    H    0.82097989    0.33825990    0.33261988    0.10980000
opls_146-66    H    0.66135999    0.48398021    0.33261988    0.10980000
opls_146-67    H    0.51351998    0.32662025    0.47858029    0.11000000
opls_146-68    H    0.67298999    0.18766986    0.47858029    0.10880000
opls_146-69    H    0.81171997    0.48635002    0.47858029    0.11260000
opls_146-70    H    0.39319012    0.26388984    0.48194990    0.10820000
opls_146-71    H    0.73562997    0.12988999    0.48194990    0.10820000
opls_146-72    H    0.86941028    0.60686030    0.48194990    0.10810000
opls_146-73    H    0.78816994    0.39916009    0.40373996    0.10820000
opls_146-74    H    0.60057012    0.39023028    0.40373996    0.10810000
opls_146-75    H    0.60948013    0.21126010    0.40373996    0.10830000
opls_144-76    H    0.29891991    0.18826022    0.50609011    0.06910000
opls_144-77    H    0.81114003    0.11110000    0.50609011    0.06150000
opls_144-78    H    0.88815997    0.70127006    0.50609011    0.06150000
