#======================================================================
# Crystal Data Generated By AuToFF
#----------------------------------------------------------------------

data_AuToFF_phase_1

_cell_length_a                         21.8508
_cell_length_b                         21.8508
_cell_length_c                         3.4231
_cell_angle_alpha                      90.00
_cell_angle_beta                       90.00
_cell_angle_gamma                      90.00
_symmetry_space_group_name_H-M_alt     'P 1'
_symmetry_space_group_IT_number        1

loop_
_space_group_symop_operation_xyz
   'x, y, z'

loop_
   _atom_site_label
   _atom_site_type_symbol
   _atom_site_fract_x
   _atom_site_fract_y
   _atom_site_fract_z
   _atom_site_charge
opls_910-0    H    0.33075997    0.82867996    0.50000000    0.25170000
opls_525-1    H    0.74775981    0.58970015    0.50000000    0.23150000
opls_910-2    H    0.66924003    0.17132004    0.50000000    0.25170000
opls_525-3    H    0.25224019    0.41029985    0.50000000    0.23150000
opls_910-4    H    0.17132004    0.33075997    0.50000000    0.25170000
opls_525-5    H    0.41029985    0.74775981    0.50000000    0.23150000
opls_910-6    H    0.82867996    0.66924003    0.50000000    0.25170000
opls_525-7    H    0.58970015    0.25224019    0.50000000    0.23150000
opls_910-8    H    0.66924003    0.82867996    0.50000000    0.25170000
opls_525-9    H    0.25224019    0.58970015    0.50000000    0.23150000
opls_910-10    H    0.33075997    0.17132004    0.50000000    0.25170000
opls_525-11    H    0.74775981    0.41029985    0.50000000    0.23150000
opls_910-12    H    0.82867996    0.33075997    0.50000000    0.25170000
opls_525-13    H    0.58970015    0.74775981    0.50000000    0.23150000
opls_910-14    H    0.17132004    0.66924003    0.50000000    0.25170000
opls_525-15    H    0.41029985    0.25224019    0.50000000    0.23150000
opls_523-16    C    0.34686007    0.60920012    0.50000000    -0.01660000
opls_543-17    C    0.37697979    0.55392983    0.50000000    0.35900000
opls_521-18    C    0.26818011    0.68584995    0.50000000    0.12360000
opls_522-19    C    0.28472001    0.62348015    0.50000000    -0.23540000
opls_523-20    C    0.88952990    0.84527981    0.50000000    -0.05350000
opls_543-21    C    0.94504000    0.87530983    0.50000000    0.36630000
opls_521-22    C    0.81262013    0.76657010    0.50000000    0.03030000
opls_522-23    C    0.87507002    0.78314982    0.50000000    0.27370000
opls_523-24    C    0.65313993    0.39079988    0.50000000    -0.01660000
opls_543-25    C    0.62302021    0.44607017    0.50000000    0.35900000
opls_521-26    C    0.73181989    0.31415005    0.50000000    0.12360000
opls_522-27    C    0.71527999    0.37651985    0.50000000    -0.23540000
opls_523-28    C    0.11047010    0.15472019    0.50000000    -0.05350000
opls_543-29    C    0.05496000    0.12469017    0.50000000    0.36630000
opls_521-30    C    0.18737987    0.23342990    0.50000000    0.03030000
opls_522-31    C    0.12492998    0.21685018    0.50000000    0.27370000
opls_523-32    C    0.39079988    0.34686007    0.50000000    -0.01660000
opls_543-33    C    0.44607017    0.37697979    0.50000000    0.35900000
opls_521-34    C    0.31415005    0.26818011    0.50000000    0.12360000
opls_522-35    C    0.37651985    0.28472001    0.50000000    -0.23540000
opls_523-36    C    0.15472019    0.88952990    0.50000000    -0.05350000
opls_543-37    C    0.12469017    0.94504000    0.50000000    0.36630000
opls_521-38    C    0.23342990    0.81262013    0.50000000    0.03030000
opls_522-39    C    0.21685018    0.87507002    0.50000000    0.27370000
opls_523-40    C    0.60920012    0.65313993    0.50000000    -0.01660000
opls_543-41    C    0.55392983    0.62302021    0.50000000    0.35900000
opls_521-42    C    0.68584995    0.73181989    0.50000000    0.12360000
opls_522-43    C    0.62348015    0.71527999    0.50000000    -0.23540000
opls_523-44    C    0.84527981    0.11047010    0.50000000    -0.05350000
opls_543-45    C    0.87530983    0.05496000    0.50000000    0.36630000
opls_521-46    C    0.76657010    0.18737987    0.50000000    0.03030000
opls_522-47    C    0.78314982    0.12492998    0.50000000    0.27370000
opls_523-48    C    0.65313993    0.60920012    0.50000000    -0.01660000
opls_543-49    C    0.62302021    0.55392983    0.50000000    0.35900000
opls_521-50    C    0.73181989    0.68584995    0.50000000    0.12360000
opls_522-51    C    0.71527999    0.62348015    0.50000000    -0.23540000
opls_523-52    C    0.11047010    0.84527981    0.50000000    -0.05350000
opls_543-53    C    0.05496000    0.87530983    0.50000000    0.36640000
opls_521-54    C    0.18737987    0.76657010    0.50000000    0.03030000
opls_522-55    C    0.12492998    0.78314982    0.50000000    0.27370000
opls_523-56    C    0.34686007    0.39079988    0.50000000    -0.01660000
opls_543-57    C    0.37697979    0.44607017    0.50000000    0.35900000
opls_521-58    C    0.26818011    0.31415005    0.50000000    0.12360000
opls_522-59    C    0.28472001    0.37651985    0.50000000    -0.23540000
opls_523-60    C    0.88952990    0.15472019    0.50000000    -0.05350000
opls_543-61    C    0.94504000    0.12469017    0.50000000    0.36640000
opls_521-62    C    0.81262013    0.23342990    0.50000000    0.03030000
opls_522-63    C    0.87507002    0.21685018    0.50000000    0.27380000
opls_523-64    C    0.60920012    0.34686007    0.50000000    -0.01660000
opls_543-65    C    0.55392983    0.37697979    0.50000000    0.35900000
opls_521-66    C    0.68584995    0.26818011    0.50000000    0.12360000
opls_522-67    C    0.62348015    0.28472001    0.50000000    -0.23540000
opls_523-68    C    0.84527981    0.88952990    0.50000000    -0.05350000
opls_543-69    C    0.87530983    0.94504000    0.50000000    0.36630000
opls_521-70    C    0.76657010    0.81262013    0.50000000    0.03030000
opls_522-71    C    0.78314982    0.87507002    0.50000000    0.27370000
opls_523-72    C    0.39079988    0.65313993    0.50000000    -0.01660000
opls_543-73    C    0.44607017    0.62302021    0.50000000    0.35900000
opls_521-74    C    0.31415005    0.73181989    0.50000000    0.12360000
opls_522-75    C    0.37651985    0.71527999    0.50000000    -0.23540000
opls_523-76    C    0.15472019    0.11047010    0.50000000    -0.05350000
opls_543-77    C    0.12469017    0.05496000    0.50000000    0.36640000
opls_521-78    C    0.23342990    0.18737987    0.50000000    0.03030000
opls_522-79    C    0.21685018    0.12492998    0.50000000    0.27390000
opls_238-80    N    0.20492980    0.70325983    0.50000000    -0.39730000
opls_238-81    N    0.79507020    0.29674017    0.50000000    -0.39730000
opls_238-82    N    0.29674017    0.20492980    0.50000000    -0.39730000
opls_238-83    N    0.70325983    0.79507020    0.50000000    -0.39720000
opls_238-84    N    0.79507020    0.70325983    0.50000000    -0.39730000
opls_238-85    N    0.20492980    0.29674017    0.50000000    -0.39730000
opls_238-86    N    0.70325983    0.20492980    0.50000000    -0.39720000
opls_238-87    N    0.29674017    0.79507020    0.50000000    -0.39730000
opls_750-88    N    0.34803989    0.50000000    0.50000000    -0.42350000
opls_750-89    N    0.65196011    0.50000000    0.50000000    -0.42350000
opls_750-90    N    0.50000000    0.34803989    0.50000000    -0.42350000
opls_750-91    N    0.50000000    0.65196011    0.50000000    -0.42340000
opls_750-92    N    0.00000000    0.84697997    0.50000000    -0.44980000
opls_750-93    N    1.00000000    0.15302003    0.50000000    -0.44980000
opls_750-94    N    0.15302003    0.00000000    0.50000000    -0.44980000
opls_750-95    N    0.84697997    0.00000000    0.50000000    -0.44980000
opls_542-96    N    0.06328006    0.93671994    0.50000000    -0.43880000
opls_542-97    N    0.43874000    0.56126000    0.50000000    -0.39140000
opls_542-98    N    0.93671994    0.06328006    0.50000000    -0.43890000
opls_542-99    N    0.56126000    0.43874000    0.50000000    -0.39140000
opls_542-100    N    0.06328006    0.06328006    0.50000000    -0.43890000
opls_542-101    N    0.43874000    0.43874000    0.50000000    -0.39140000
opls_542-102    N    0.93671994    0.93671994    0.50000000    -0.43890000
opls_542-103    N    0.56126000    0.56126000    0.50000000    -0.39130000
opls_719-104    F    0.08267020    0.25749995    0.50000000    -0.21240000
opls_719-105    F    0.91732980    0.74250005    0.50000000    -0.21240000
opls_719-106    F    0.74250005    0.08267020    0.50000000    -0.21240000
opls_719-107    F    0.25749995    0.91732980    0.50000000    -0.21240000
opls_719-108    F    0.91732980    0.25749995    0.50000000    -0.21240000
opls_719-109    F    0.08267020    0.74250005    0.50000000    -0.21240000
opls_719-110    F    0.25749995    0.08267020    0.50000000    -0.21240000
opls_719-111    F    0.74250005    0.91732980    0.50000000    -0.21240000
Cu2+-112    Cu    0.00000000    0.00000000    0.50000000    0.62010000
F2_Ni4+2-113    Ni    0.50000000    0.50000000    0.50000000    0.42600000
