#======================================================================
# Crystal Data Generated By AuToFF
#----------------------------------------------------------------------

data_AuToFF_phase_1

_cell_length_a                         32.8400
_cell_length_b                         32.8400
_cell_length_c                         3.4500
_cell_angle_alpha                      90.00
_cell_angle_beta                       90.00
_cell_angle_gamma                      120.00
_symmetry_space_group_name_H-M_alt     'P 1'
_symmetry_space_group_IT_number        1

loop_
_space_group_symop_operation_xyz
   'x, y, z'

loop_
   _atom_site_label
   _atom_site_type_symbol
   _atom_site_fract_x
   _atom_site_fract_y
   _atom_site_fract_z
   _atom_site_charge
opls_167-0    O    0.38627007    0.54473991    0.50000000    -0.33970000
opls_167-1    O    0.53978001    0.37965990    0.50000000    -0.33980000
opls_167-2    O    0.45526012    0.84152999    0.50000000    -0.33970000
opls_167-3    O    0.62034022    0.16012014    0.50000000    -0.33980000
opls_167-4    O    0.15847011    0.61373011    0.50000000    -0.33970000
opls_167-5    O    0.83988008    0.46021996    0.50000000    -0.33980000
opls_167-6    O    0.61372993    0.45526009    0.50000000    -0.33970000
opls_167-7    O    0.46021999    0.62034010    0.50000000    -0.33980000
opls_167-8    O    0.54473988    0.15847001    0.50000000    -0.33970000
opls_167-9    O    0.37965996    0.83988021    0.50000000    -0.33980000
opls_167-10    O    0.84152989    0.38626989    0.50000000    -0.33970000
opls_167-11    O    0.16011992    0.53978004    0.50000000    -0.33980000
opls_145-12    C    0.33609996    0.58098007    0.50000000    -0.18610000
opls_700-13    C    0.33493009    0.62329014    0.50000000    0.03020000
opls_166-14    C    0.37944000    0.58304018    0.50000000    0.18180000
opls_567-15    C    0.46592019    0.54266011    0.50000000    -0.31500000
opls_145-16    C    0.57901998    0.33222997    0.50000000    -0.21900000
opls_700-17    C    0.62229024    0.33333017    0.50000000    0.02940000
opls_166-18    C    0.57920997    0.37467999    0.50000000    0.17790000
opls_567-19    C    0.52196994    0.51838994    0.50000000    -0.01890000
opls_716-20    C    0.44396001    0.49389018    0.50000000    -0.15890000
opls_145-21    C    0.41902017    0.75512012    0.50000000    -0.18610000
opls_700-22    C    0.37671018    0.71164022    0.50000000    0.03020000
opls_166-23    C    0.41696003    0.79639996    0.50000000    0.18180000
opls_567-24    C    0.45734022    0.92326022    0.50000000    -0.31500000
opls_145-25    C    0.66777025    0.24679020    0.50000000    -0.18210000
opls_700-26    C    0.66667000    0.28895999    0.50000000    0.02940000
opls_166-27    C    0.62532014    0.20453006    0.50000000    0.17790000
opls_567-28    C    0.48161010    0.00358013    0.50000000    -0.01890000
opls_716-29    C    0.50610996    0.95007009    0.50000000    -0.15890000
opls_145-30    C    0.24488005    0.66390017    0.50000000    -0.18610000
opls_700-31    C    0.28835990    0.66506999    0.50000000    0.03020000
opls_166-32    C    0.20360014    0.62056021    0.50000000    0.18180000
opls_567-33    C    0.07674007    0.53408002    0.50000000    -0.31500000
opls_145-34    C    0.75320994    0.42098018    0.50000000    -0.21900000
opls_700-35    C    0.71104024    0.37771020    0.50000000    0.02940000
opls_166-36    C    0.79546989    0.42078996    0.50000000    0.17790000
opls_567-37    C    0.99641995    0.47802992    0.50000000    -0.01890000
opls_716-38    C    0.04992991    0.55604008    0.50000000    -0.15880000
opls_145-39    C    0.66390004    0.41901993    0.50000000    -0.18610000
opls_700-40    C    0.66507009    0.37671021    0.50000000    0.03020000
opls_166-41    C    0.62056017    0.41696018    0.50000000    0.18190000
opls_567-42    C    0.53407999    0.45734024    0.50000000    -0.31500000
opls_145-43    C    0.42098002    0.66777003    0.50000000    -0.21900000
opls_700-44    C    0.37771024    0.66667018    0.50000000    0.02940000
opls_166-45    C    0.42079003    0.62532001    0.50000000    0.17790000
opls_567-46    C    0.47803006    0.48161006    0.50000000    -0.01890000
opls_716-47    C    0.55604017    0.50611017    0.50000000    -0.15890000
opls_145-48    C    0.58097983    0.24487988    0.50000000    -0.18610000
opls_700-49    C    0.62328999    0.28836013    0.50000000    0.03020000
opls_166-50    C    0.58303997    0.20360004    0.50000000    0.18180000
opls_567-51    C    0.54265996    0.07674013    0.50000000    -0.31500000
opls_145-52    C    0.33222992    0.75321015    0.50000000    -0.21900000
opls_700-53    C    0.33333000    0.71104001    0.50000000    0.02940000
opls_166-54    C    0.37467986    0.79546994    0.50000000    0.17810000
opls_567-55    C    0.51839007    0.99642022    0.50000000    -0.01890000
opls_716-56    C    0.49389004    0.04992991    0.50000000    -0.15890000
opls_145-57    C    0.75512013    0.33610018    0.50000000    -0.18610000
opls_700-58    C    0.71164010    0.33493001    0.50000000    0.03020000
opls_166-59    C    0.79640003    0.37944014    0.50000000    0.18180000
opls_567-60    C    0.92325993    0.46591998    0.50000000    -0.31500000
opls_145-61    C    0.24679023    0.57902017    0.50000000    -0.21890000
opls_700-62    C    0.28895994    0.62229015    0.50000000    0.02940000
opls_166-63    C    0.20453011    0.57921004    0.50000000    0.17790000
opls_567-64    C    0.00358005    0.52197008    0.50000000    -0.01890000
opls_716-65    C    0.95007009    0.44395992    0.50000000    -0.15890000
MOF2_B_2-66    B    0.43773001    0.56900022    0.50000000    0.59520000
MOF2_B_2-67    B    0.43099997    0.86873015    0.50000000    0.59510000
MOF2_B_2-68    B    0.13126989    0.56226998    0.50000000    0.59520000
MOF2_B_2-69    B    0.56227016    0.43100013    0.50000000    0.59510000
MOF2_B_2-70    B    0.56900003    0.13126985    0.50000000    0.59510000
MOF2_B_2-71    B    0.86873011    0.43773002    0.50000000    0.59510000
opls_633-72    S    0.52663005    0.57219007    0.50000000    0.21620000
opls_633-73    S    0.42781029    0.95444031    0.50000000    0.21620000
opls_633-74    S    0.04556014    0.47336998    0.50000000    0.21620000
opls_633-75    S    0.47336995    0.42780993    0.50000000    0.21620000
opls_633-76    S    0.57218989    0.04556005    0.50000000    0.21620000
opls_633-77    S    0.95444016    0.52663002    0.50000000    0.21620000
opls_146-78    H    0.30611016    0.54618012    0.50000000    0.11130000
opls_146-79    H    0.54484015    0.30133012    0.50000000    0.11120000
opls_570-80    H    0.40643010    0.46948992    0.50000000    0.11710000
opls_146-81    H    0.45382015    0.75993020    0.50000000    0.11120000
opls_146-82    H    0.69866996    0.24352019    0.50000000    0.11120000
opls_570-83    H    0.53050995    0.93694012    0.50000000    0.11710000
opls_146-84    H    0.24007017    0.69389004    0.50000000    0.11120000
opls_146-85    H    0.75648998    0.45516024    0.50000000    0.11120000
opls_570-86    H    0.06306018    0.59358016    0.50000000    0.12320000
opls_146-87    H    0.69389002    0.45382023    0.50000000    0.11120000
opls_146-88    H    0.45516002    0.69867023    0.50000000    0.11120000
opls_570-89    H    0.59356990    0.53051008    0.50000000    0.11710000
opls_146-90    H    0.54618002    0.24007015    0.50000000    0.11120000
opls_146-91    H    0.30132996    0.75649001    0.50000000    0.11120000
opls_570-92    H    0.46949005    0.06305988    0.50000000    0.11710000
opls_146-93    H    0.75992983    0.30610996    0.50000000    0.11120000
opls_146-94    H    0.24351994    0.54484012    0.50000000    0.11120000
opls_570-95    H    0.93694005    0.40643004    0.50000000    0.11710000
