#======================================================================
# Crystal Data Generated By AuToFF
#----------------------------------------------------------------------

data_AuToFF_phase_1

_cell_length_a                         51.3552
_cell_length_b                         24.8977
_cell_length_c                         9.4588
_cell_angle_alpha                      63.80
_cell_angle_beta                       105.43
_cell_angle_gamma                      85.52
_symmetry_space_group_name_H-M_alt     'P 1'
_symmetry_space_group_IT_number        1

loop_
_space_group_symop_operation_xyz
   'x, y, z'

loop_
   _atom_site_label
   _atom_site_type_symbol
   _atom_site_fract_x
   _atom_site_fract_y
   _atom_site_fract_z
   _atom_site_charge
opls_700-0    C    0.09647990    0.86364002    0.15175041    0.06300000
opls_145-1    C    0.09541003    0.80530985    0.27010014    -0.13230000
opls_145-2    C    0.11184989    0.75215990    0.29456019    -0.17140000
opls_145-3    C    0.12991992    0.75641989    0.20464982    0.18840000
opls_145-4    C    0.13112000    0.81472002    0.08745973    -0.16660000
opls_145-5    C    0.11461989    0.86748985    0.06210024    -0.13360000
opls_531-6    C    0.22412992    0.37608994    0.27303990    0.33470000
opls_531-7    C    0.26388991    0.41632020    0.26281954    0.36200000
opls_531-8    C    0.22348993    0.47544013    0.24023968    0.35130000
opls_700-9    C    0.20895998    0.53234982    0.22635026    0.00060000
opls_700-10    C    0.20963995    0.32655007    0.27908955    -0.00190000
opls_700-11    C    0.29269992    0.40961004    0.26454962    0.00830000
opls_523-12    C    0.31322986    0.35881006    0.39650982    -0.11890000
opls_145-13    C    0.34072997    0.35318974    0.40077059    -0.12100000
opls_700-14    C    0.34796996    0.39710984    0.27065056    0.06970000
opls_145-15    C    0.32718991    0.44680988    0.13553044    -0.13170000
opls_523-16    C    0.29976993    0.45341012    0.13359020    -0.12540000
opls_523-17    C    0.21930991    0.58583000    0.17149058    -0.12520000
opls_145-18    C    0.20595993    0.63903994    0.16169055    -0.12020000
opls_700-19    C    0.18219002    0.63974007    0.20810998    0.05850000
opls_145-20    C    0.17188990    0.58632988    0.26398043    -0.12330000
opls_523-21    C    0.18516999    0.53306987    0.27317000    -0.13170000
opls_523-22    C    0.18082999    0.34000990    0.19940955    -0.12840000
opls_145-23    C    0.16759001    0.29365987    0.19386028    -0.12330000
opls_700-24    C    0.18289007    0.23302004    0.27067058    0.05310000
opls_145-25    C    0.21153998    0.21921004    0.35482027    -0.11890000
opls_523-26    C    0.22481003    0.26564987    0.35785010    -0.11910000
opls_142-27    C    0.16825005    0.69707985    0.19270064    0.06960000
opls_142-28    C    0.37744996    0.39201987    0.28329028    0.06950000
opls_142-29    C    0.16946989    0.18338996    0.26662997    0.06940000
opls_700-30    C    0.09841001    0.06276978    0.14504025    0.06910000
opls_145-31    C    0.12041996    0.04742004    0.29043953    -0.13230000
opls_145-32    C    0.13550988    0.09057983    0.30027959    -0.16850000
opls_145-33    C    0.12930995    0.14944978    0.16257998    0.19500000
opls_145-34    C    0.10738006    0.16479999    0.01718946    -0.16440000
opls_145-35    C    0.09199004    0.12172018    0.00779975    -0.12330000
opls_916-36    C    0.57695999    0.62000974    0.89958030    0.16350000
opls_145-37    C    0.59071990    0.56005959    0.95193055    -0.16980000
opls_145-38    C    0.61953983    0.54460980    0.99689011    -0.16260000
opls_145-39    C    0.63531005    0.58782950    0.99648104    0.19740000
opls_145-40    C    0.62183989    0.64704964    0.95243093    -0.17060000
opls_145-41    C    0.59296985    0.66275969    0.90548985    -0.16900000
opls_700-42    C    0.08186994    0.01745975    0.13697030    0.03340000
opls_700-43    C    0.05387010    0.02503992    0.12887032    0.03220000
opls_700-44    C    0.03851995    0.98251005    0.10903007    0.02170000
opls_700-45    C    0.05156995    0.93104013    0.10518961    0.03140000
opls_700-46    C    0.08035988    0.92084000    0.12955960    0.02820000
opls_145-47    C    0.09476989    0.96528992    0.14006017    -0.16440000
opls_145-48    C    0.04108004    0.07300999    0.14457990    -0.11310000
opls_145-49    C    0.01338997    0.08086989    0.13309982    -0.12270000
opls_700-50    C    0.99709007    0.04225969    0.09996059    0.03270000
opls_700-51    C    0.01003995    0.99140971    0.09332049    0.01060000
opls_700-52    C    0.99464988    0.94910995    0.07254952    0.03160000
opls_145-53    C    0.00758001    0.90046987    0.05956954    -0.11660000
opls_145-54    C    0.03540992    0.89190006    0.07408946    -0.11020000
opls_700-55    C    0.96838999    0.05221973    0.07694040    0.02870000
opls_145-56    C    0.95366008    0.00900982    0.06060034    -0.14520000
opls_700-57    C    0.96653989    0.95707979    0.06259062    0.03340000
opls_700-58    C    0.95024993    0.91104002    0.05847996    0.06740000
opls_145-59    C    0.92822996    0.92458951    0.91483078    -0.11790000
opls_145-60    C    0.91369000    0.87975950    0.90999081    -0.17750000
opls_145-61    C    0.92081994    0.82093981    0.05063017    0.18960000
opls_145-62    C    0.94219998    0.80858972    0.19528012    -0.16250000
opls_145-63    C    0.95696999    0.85297993    0.19951963    -0.11890000
opls_531-64    C    0.83550993    0.56978014    0.03245995    0.33530000
opls_531-65    C    0.79480994    0.53543991    0.07723062    0.27500000
opls_531-66    C    0.83350993    0.46826973    0.08186043    0.27060000
opls_522-67    C    0.84573989    0.41559005    0.09275005    0.01340000
opls_700-68    C    0.85023001    0.61990979    0.00330004    0.00360000
opls_700-69    C    0.76664003    0.54829985    0.08508041    -0.00470000
opls_523-70    C    0.75971997    0.59165001    0.13418065    -0.13100000
opls_145-71    C    0.73264994    0.60735980    0.13057038    -0.12940000
opls_700-72    C    0.71207001    0.57965990    0.07860042    0.05990000
opls_145-73    C    0.71897990    0.53601010    0.03100008    -0.12740000
opls_523-74    C    0.74599999    0.52019992    0.03503944    -0.12980000
opls_523-75    C    0.83517992    0.35832984    0.15330035    -0.14830000
opls_145-76    C    0.84688003    0.30838013    0.15406969    -0.13250000
opls_145-77    C    0.87037004    0.30845987    0.09175053    0.05680000
opls_145-78    C    0.88162999    0.36430988    0.03624036    -0.12890000
opls_523-79    C    0.87061999    0.41364015    0.04071005    -0.13410000
opls_523-80    C    0.87288000    0.61532008    0.13291968    -0.11890000
opls_145-81    C    0.88555003    0.66489974    0.10931028    -0.12990000
opls_700-82    C    0.87597998    0.71927969    0.95506045    0.06920000
opls_145-83    C    0.85361989    0.72316988    0.82478030    -0.12020000
opls_523-84    C    0.84059997    0.67403967    0.84948054    -0.11830000
opls_142-85    C    0.88117010    0.25839005    0.08852055    0.07040000
opls_142-86    C    0.68325993    0.59890982    0.06665999    0.07020000
opls_142-87    C    0.88857991    0.77270955    0.92928063    0.06950000
opls_178-88    C    0.95295006    0.10867999    0.06110948    0.07090000
opls_150-89    C    0.95415992    0.17270953    0.94750089    -0.09330000
opls_142-90    C    0.93755995    0.22160996    0.93340005    -0.14310000
opls_141-91    C    0.91724998    0.21144996    0.02777010    0.18620000
opls_142-92    C    0.91550008    0.14676007    0.13182009    -0.19870000
opls_261-93    C    0.93374001    0.11001013    0.12555027    -0.03160000
opls_916-94    C    0.53251991    0.69627966    0.68983031    0.17510000
opls_916-95    C    0.53166991    0.59527959    0.92275061    0.16970000
opls_145-96    C    0.54527996    0.72477991    0.57028966    -0.16540000
opls_145-97    C    0.53325999    0.78394965    0.43803049    -0.16540000
opls_916-98    C    0.50752986    0.81483986    0.41825028    0.26060000
opls_145-99    C    0.49376994    0.78561976    0.53081056    -0.16850000
opls_145-100    C    0.50622997    0.72697989    0.66658994    -0.17580000
opls_145-101    C    0.54200990    0.56049980    0.09605009    -0.16950000
opls_145-102    C    0.53025999    0.51304000    0.18080024    -0.19170000
opls_916-103    C    0.50704005    0.49941983    0.09559974    0.15820000
opls_145-104    C    0.49689994    0.53448973    0.91980085    -0.17080000
opls_145-105    C    0.50835988    0.58334988    0.83513076    -0.16990000
opls_916-106    C    0.46693988    0.45268003    0.17570007    0.18600000
opls_916-107    C    0.51467992    0.38851007    0.30739006    0.18600000
opls_145-108    C    0.53340990    0.37884997    0.46016000    -0.17320000
opls_145-109    C    0.55252995    0.32274005    0.56927013    -0.16900000
opls_916-110    C    0.55184995    0.27397994    0.53382037    0.26570000
opls_145-111    C    0.53119997    0.28082012    0.39297960    -0.16320000
opls_145-112    C    0.51250994    0.33724979    0.28223071    -0.16540000
opls_145-113    C    0.44455004    0.47875001    0.02534949    -0.17290000
opls_145-114    C    0.41796999    0.46909011    0.02364943    -0.17570000
opls_145-115    C    0.41284992    0.43569994    0.17184961    0.19630000
opls_145-116    C    0.43460993    0.41318003    0.32241035    -0.13830000
opls_145-117    C    0.46095992    0.42363000    0.32312966    -0.16940000
opls_700-118    C    0.09647988    0.86363973    0.65174978    0.06300000
opls_145-119    C    0.09540987    0.80530974    0.77010076    -0.13230000
opls_145-120    C    0.11184992    0.75215979    0.79456082    -0.17140000
opls_145-121    C    0.12991996    0.75641978    0.70465045    0.18840000
opls_145-122    C    0.13111984    0.81471991    0.58746036    -0.16660000
opls_145-123    C    0.11461992    0.86748973    0.56210087    -0.13360000
opls_531-124    C    0.22412996    0.37608982    0.77304052    0.33470000
opls_531-125    C    0.26388996    0.41631969    0.76282017    0.36190000
opls_531-126    C    0.22348998    0.47543961    0.74024031    0.35130000
opls_700-127    C    0.20896001    0.53234971    0.72635088    0.00060000
opls_700-128    C    0.20963999    0.32654996    0.77909018    -0.00190000
opls_700-129    C    0.29269995    0.40960993    0.76455025    0.00830000
opls_523-130    C    0.31322989    0.35880995    0.89651044    -0.11890000
opls_145-131    C    0.34072993    0.35318985    0.90076997    -0.12100000
opls_700-132    C    0.34796992    0.39710995    0.77064994    0.06970000
opls_145-133    C    0.32718988    0.44680999    0.63552981    -0.13170000
opls_523-134    C    0.29976998    0.45340961    0.63359082    -0.12540000
opls_523-135    C    0.21930989    0.58582971    0.67148996    -0.12520000
opls_145-136    C    0.20595990    0.63904005    0.66168992    -0.12020000
opls_700-137    C    0.18218988    0.63973956    0.70811061    0.05850000
opls_145-138    C    0.17188986    0.58632999    0.76397981    -0.12330000
opls_523-139    C    0.18517003    0.53306976    0.77317062    -0.13170000
opls_523-140    C    0.18083002    0.34000979    0.69941017    -0.12840000
opls_145-141    C    0.16759004    0.29365976    0.69386091    -0.12330000
opls_700-142    C    0.18288985    0.23301975    0.77066995    0.05310000
opls_145-143    C    0.21154003    0.21920953    0.85482089    -0.11890000
opls_523-144    C    0.22481007    0.26564976    0.85785072    -0.11910000
opls_142-145    C    0.16824982    0.69707997    0.69270001    0.06960000
opls_142-146    C    0.37744990    0.39201952    0.78328090    0.06950000
opls_142-147    C    0.16946992    0.18338985    0.76663060    0.06930000
opls_700-148    C    0.09841005    0.06276967    0.64504088    0.06910000
opls_145-149    C    0.12042000    0.04741993    0.79044015    -0.13230000
opls_145-150    C    0.13550991    0.09057972    0.80028022    -0.16850000
opls_145-151    C    0.12930999    0.14944967    0.66258061    0.19510000
opls_145-152    C    0.10737990    0.16479988    0.51719009    -0.16450000
opls_145-153    C    0.09199009    0.12171966    0.50780037    -0.12330000
opls_916-154    C    0.57695995    0.62000985    0.39957968    0.16350000
opls_145-155    C    0.59071985    0.56006011    0.45192992    -0.16980000
opls_145-156    C    0.61954006    0.54460969    0.49689073    -0.16260000
opls_145-157    C    0.63531000    0.58783002    0.49648042    0.19740000
opls_145-158    C    0.62184005    0.64704975    0.45243031    -0.17070000
opls_145-159    C    0.59296987    0.66275998    0.40549047    -0.16900000
opls_700-160    C    0.08186998    0.01745963    0.63697092    0.03340000
opls_700-161    C    0.05386987    0.02504003    0.62886969    0.03220000
opls_700-162    C    0.03851999    0.98250994    0.60903069    0.02170000
opls_700-163    C    0.05156999    0.93104002    0.60519024    0.03140000
opls_700-164    C    0.08035992    0.92083989    0.62956022    0.02820000
opls_145-165    C    0.09476993    0.96528981    0.64006080    -0.16440000
opls_145-166    C    0.04108007    0.07300988    0.64458052    -0.11310000
opls_145-167    C    0.01339000    0.08086978    0.63310045    -0.12270000
opls_700-168    C    0.99709004    0.04225980    0.59995997    0.03270000
opls_700-169    C    0.01003991    0.99140982    0.59331986    0.01060000
opls_700-170    C    0.99464992    0.94910984    0.57255015    0.03160000
opls_145-171    C    0.00757985    0.90046976    0.55957017    -0.11660000
opls_145-172    C    0.03540995    0.89189995    0.57409008    -0.11020000
opls_700-173    C    0.96838996    0.05221984    0.57693977    0.02870000
opls_145-174    C    0.95366004    0.00900993    0.56059971    -0.14520000
opls_700-175    C    0.96653986    0.95707990    0.56258999    0.03340000
opls_700-176    C    0.95024996    0.91103991    0.55848058    0.06740000
opls_145-177    C    0.92822991    0.92459002    0.41483015    -0.11790000
opls_145-178    C    0.91368995    0.87976001    0.40999018    -0.17740000
opls_145-179    C    0.92081998    0.82093970    0.55063080    0.19020000
opls_145-180    C    0.94220002    0.80858961    0.69528075    -0.16250000
opls_145-181    C    0.95697002    0.85297982    0.69952026    -0.11890000
opls_531-182    C    0.83550999    0.56977963    0.53246058    0.33530000
opls_531-183    C    0.79480990    0.53544002    0.57723000    0.27490000
opls_531-184    C    0.83350989    0.46826984    0.58185980    0.27060000
opls_522-185    C    0.84573993    0.41558994    0.59275068    0.01340000
opls_700-186    C    0.85023004    0.61990968    0.50330066    0.00360000
opls_700-187    C    0.76664000    0.54829996    0.58507978    -0.00470000
opls_523-188    C    0.75971985    0.59164987    0.63417002    -0.13090000
opls_145-189    C    0.73264991    0.60735991    0.63056975    -0.12940000
opls_700-190    C    0.71206998    0.57966001    0.57859980    0.05990000
opls_145-191    C    0.71897995    0.53600959    0.53100071    -0.12740000
opls_523-192    C    0.74600003    0.52019981    0.53504006    -0.12990000
opls_523-193    C    0.83517989    0.35832995    0.65329972    -0.14830000
opls_145-194    C    0.84687987    0.30838001    0.65407032    -0.13250000
opls_145-195    C    0.87037000    0.30845998    0.59174991    0.05680000
opls_145-196    C    0.88162996    0.36430999    0.53623973    -0.12900000
opls_523-197    C    0.87062004    0.41363964    0.54071067    -0.13410000
opls_523-198    C    0.87287984    0.61531996    0.63292031    -0.11890000
opls_145-199    C    0.88555007    0.66489963    0.60931091    -0.12990000
opls_700-200    C    0.87597995    0.71927980    0.45505983    0.06920000
opls_145-201    C    0.85361985    0.72316999    0.32477967    -0.12020000
opls_523-202    C    0.84059994    0.67403978    0.34947991    -0.11830000
opls_142-203    C    0.88116997    0.25839001    0.58852993    0.07040000
opls_142-204    C    0.68325997    0.59890971    0.56666062    0.07020000
opls_142-205    C    0.88857986    0.77271007    0.42928001    0.06950000
opls_178-206    C    0.95294990    0.10867988    0.56111010    0.07090000
opls_150-207    C    0.95416007    0.17271004    0.44750027    -0.09320000
opls_142-208    C    0.93755998    0.22160985    0.43340068    -0.14310000
opls_141-209    C    0.91725002    0.21144985    0.52777072    0.18620000
opls_142-210    C    0.91549992    0.14675996    0.63182071    -0.19870000
opls_261-211    C    0.93374006    0.11000962    0.62555089    -0.03150000
opls_916-212    C    0.53251986    0.69628017    0.18982968    0.17510000
opls_916-213    C    0.53166986    0.59528010    0.42274999    0.16970000
opls_145-214    C    0.54528000    0.72477980    0.07029029    -0.16540000
opls_145-215    C    0.53325995    0.78394976    0.93802986    -0.16540000
opls_916-216    C    0.50752990    0.81483975    0.91825091    0.26080000
opls_145-217    C    0.49376990    0.78561987    0.03080994    -0.16850000
opls_145-218    C    0.50623001    0.72697978    0.16659057    -0.17580000
opls_145-219    C    0.54200994    0.56049969    0.59605071    -0.16950000
opls_145-220    C    0.53026002    0.51303989    0.68080087    -0.19170000
opls_916-221    C    0.50703989    0.49941972    0.59560037    0.15820000
opls_145-222    C    0.49689991    0.53448985    0.41980022    -0.17080000
opls_145-223    C    0.50836004    0.58334999    0.33513013    -0.16990000
opls_916-224    C    0.46693991    0.45267992    0.67570069    0.18600000
opls_916-225    C    0.51467997    0.38850956    0.80739068    0.18610000
opls_145-226    C    0.53340994    0.37884986    0.96016062    -0.17320000
opls_145-227    C    0.55252992    0.32274016    0.06926950    -0.16900000
opls_916-228    C    0.55184992    0.27398005    0.03381975    0.26570000
opls_145-229    C    0.53120002    0.28081960    0.89298023    -0.16320000
opls_145-230    C    0.51250990    0.33724990    0.78223009    -0.16540000
opls_145-231    C    0.44454988    0.47874990    0.52535011    -0.17290000
opls_145-232    C    0.41797003    0.46909000    0.52365006    -0.17570000
opls_145-233    C    0.41284995    0.43569983    0.67185023    0.19630000
opls_145-234    C    0.43460998    0.41317951    0.82241098    -0.13830000
opls_145-235    C    0.46095995    0.42362989    0.82313028    -0.16940000
opls_520-236    N    0.21050003    0.42894008    0.25377009    -0.46420000
opls_520-237    N    0.25098996    0.36967978    0.28017038    -0.44040000
opls_520-238    N    0.25001002    0.46940008    0.24097025    -0.46420000
opls_750-239    N    0.14565986    0.70085988    0.22877962    -0.34170000
opls_750-240    N    0.14405004    0.19529009    0.16955034    -0.34900000
opls_239-241    N    0.54685992    0.63776004    0.83713980    -0.14860000
opls_750-242    N    0.38490007    0.43165981    0.16456026    -0.35390000
opls_520-243    N    0.84706988    0.51838003    0.04806945    -0.47350000
opls_520-244    N    0.80849997    0.57846989    0.04500960    -0.47000000
opls_238-245    N    0.80693991    0.47688971    0.10162062    -0.41010000
opls_750-246    N    0.90701003    0.77259998    0.05414037    -0.34170000
opls_750-247    N    0.66444988    0.57122017    0.02728973    -0.35380000
opls_750-248    N    0.90252992    0.25898991    0.01664029    -0.35350000
opls_239-249    N    0.49592003    0.44769019    0.18658969    -0.15640000
opls_237-250    N    0.49559998    0.87597999    0.28458002    -0.55990000
opls_237-251    N    0.57186007    0.21736972    0.64178087    -0.56120000
opls_520-252    N    0.21049989    0.42893957    0.75377071    -0.46420000
opls_520-253    N    0.25098992    0.36967989    0.78016976    -0.44030000
opls_520-254    N    0.25001007    0.46939957    0.74097087    -0.46410000
opls_750-255    N    0.14565990    0.70085977    0.72878025    -0.34150000
opls_750-256    N    0.14405002    0.19528980    0.66954972    -0.34910000
opls_239-257    N    0.54685996    0.63775993    0.33714043    -0.14860000
opls_750-258    N    0.38489991    0.43165969    0.66456088    -0.35400000
opls_520-259    N    0.84706991    0.51837991    0.54807008    -0.47340000
opls_520-260    N    0.80850000    0.57846978    0.54501023    -0.47000000
opls_238-261    N    0.80693988    0.47688982    0.60162000    -0.41020000
opls_750-262    N    0.90701000    0.77260009    0.55413974    -0.34170000
opls_750-263    N    0.66444993    0.57121966    0.52729035    -0.35380000
opls_750-264    N    0.90252989    0.25899002    0.51663967    -0.35360000
opls_239-265    N    0.49591989    0.44768967    0.68659032    -0.15640000
opls_237-266    N    0.49560002    0.87597988    0.78458065    -0.55980000
opls_237-267    N    0.57186003    0.21736983    0.14178024    -0.56120000
opls_146-268    H    0.08231985    0.80090012    0.34594970    0.11140000
opls_146-269    H    0.11091994    0.70744002    0.38554013    0.11890000
opls_146-270    H    0.14398989    0.81981990    0.01075952    0.11920000
opls_146-271    H    0.11591988    0.91147998    0.97136048    0.09630000
opls_526-272    H    0.30798004    0.32444002    0.49799033    0.11460000
opls_146-273    H    0.35646999    0.31476958    0.50682087    0.11490000
opls_146-274    H    0.33234999    0.48102983    0.03333062    0.11460000
opls_526-275    H    0.28395003    0.49220005    0.02941011    0.11460000
opls_526-276    H    0.23755993    0.58653010    0.13435954    0.11360000
opls_146-277    H    0.21413004    0.67992007    0.11683982    0.11510000
opls_146-278    H    0.15362985    0.58600000    0.30073994    0.11510000
opls_526-279    H    0.17706994    0.49211012    0.31858992    0.11720000
opls_526-280    H    0.16876994    0.38670988    0.13753948    0.11700000
opls_146-281    H    0.14542988    0.30491007    0.12999994    0.11210000
opls_146-282    H    0.22368002    0.17256996    0.41639010    0.11670000
opls_526-283    H    0.24703005    0.25417987    0.42079974    0.11520000
opls_144-284    H    0.17733996    0.73655969    0.14859048    0.10470000
opls_144-285    H    0.39270993    0.35576008    0.39618957    0.09930000
opls_144-286    H    0.18161004    0.13664012    0.34310001    0.11820000
opls_146-287    H    0.12573989    0.00261001    0.39785960    0.09380000
opls_146-288    H    0.15147992    0.07830972    0.41694052    0.12210000
opls_146-289    H    0.10247000    0.21018978    0.91090025    0.11990000
opls_146-290    H    0.07513999    0.13418019    0.89404980    0.11910000
opls_146-291    H    0.57909987    0.52551995    0.95429987    0.11940000
opls_146-292    H    0.62971994    0.49878987    0.03107014    0.11910000
opls_146-293    H    0.63330986    0.68195984    0.94748088    0.12380000
opls_146-294    H    0.58294995    0.70901985    0.86827999    0.12010000
opls_146-295    H    0.11671995    0.95808008    0.15723963    0.11360000
opls_146-296    H    0.05263995    0.10420989    0.16937020    0.12060000
opls_146-297    H    0.00498000    0.11716982    0.15264985    0.11890000
opls_146-298    H    0.99606000    0.86902010    0.03602019    0.12040000
opls_146-299    H    0.04411993    0.85471983    0.05871013    0.11620000
opls_146-300    H    0.93176996    0.01617008    0.04449045    0.11510000
opls_146-301    H    0.92252987    0.96956991    0.80622979    0.11790000
opls_146-302    H    0.89699994    0.89166970    0.79652983    0.12280000
opls_146-303    H    0.94748987    0.76390974    0.30475053    0.11760000
opls_146-304    H    0.97372987    0.84200980    0.31266036    0.11520000
opls_526-305    H    0.77524006    0.61369988    0.17428023    0.11690000
opls_146-306    H    0.72781002    0.64107000    0.16810048    0.12060000
opls_146-307    H    0.70335001    0.51459990    0.98831977    0.11440000
opls_526-308    H    0.75032999    0.48792004    0.99202012    0.12150000
opls_526-309    H    0.81877995    0.35433996    0.20618976    0.11090000
opls_146-310    H    0.83908993    0.26719971    0.20248066    0.11610000
opls_146-311    H    0.89932993    0.36494008    0.99418053    0.11420000
opls_526-312    H    0.87949998    0.45352995    0.99899047    0.11920000
opls_526-313    H    0.88015992    0.57410018    0.25319965    0.11980000
opls_146-314    H    0.90266990    0.66107981    0.21172026    0.11560000
opls_146-315    H    0.84604003    0.76441995    0.70476053    0.11610000
opls_526-316    H    0.82298000    0.67806001    0.74934981    0.11730000
opls_144-317    H    0.87258006    0.21815984    0.13343007    0.10470000
opls_144-318    H    0.67810992    0.63686995    0.08888958    0.09520000
opls_144-319    H    0.88198989    0.81153964    0.80506014    0.11510000
opls_144-320    H    0.96772991    0.18043997    0.87349025    0.11360000
opls_144-321    H    0.93819999    0.26799998    0.85068021    0.12040000
opls_144-322    H    0.90495996    0.13177012    0.22239972    0.10390000
opls_910-323    H    0.79600997    0.44241000    0.13035021    0.27440000
opls_146-324    H    0.56503003    0.70149973    0.58297066    0.12070000
opls_146-325    H    0.54364001    0.80597990    0.34890072    0.11520000
opls_146-326    H    0.47364997    0.80870974    0.51467065    0.11740000
opls_146-327    H    0.49606994    0.70657990    0.75788012    0.12060000
opls_146-328    H    0.55978995    0.57011977    0.16413993    0.12380000
opls_146-329    H    0.53956993    0.48879001    0.31373994    0.10920000
opls_146-330    H    0.48186989    0.52180978    0.84472063    0.08920000
opls_146-331    H    0.50056001    0.60839986    0.69992056    0.11930000
opls_146-332    H    0.53260989    0.41340999    0.49934012    0.11840000
opls_146-333    H    0.56747001    0.31663002    0.68331029    0.11690000
opls_146-334    H    0.52978004    0.24253973    0.36784028    0.11720000
opls_146-335    H    0.49648992    0.34048996    0.17757026    0.10640000
opls_146-336    H    0.44696001    0.50652988    0.90787043    0.23930000
opls_146-337    H    0.40158991    0.48315986    0.90694972    0.11740000
opls_146-338    H    0.43126007    0.38751983    0.43966049    0.11590000
opls_146-339    H    0.47666995    0.41428986    0.43599017    0.10890000
opls_909-340    H    0.47766992    0.90207978    0.27622985    0.27620000
opls_909-341    H    0.50467986    0.89625997    0.19302964    0.27610000
opls_909-342    H    0.58706001    0.21104999    0.74967006    0.27600000
opls_909-343    H    0.57237996    0.18168968    0.61215059    0.27590000
opls_146-344    H    0.08231990    0.80089961    0.84595032    0.11140000
opls_146-345    H    0.11091999    0.70743950    0.88554076    0.11890000
opls_146-346    H    0.14398993    0.81981979    0.51076015    0.11920000
opls_146-347    H    0.11591984    0.91148009    0.47135986    0.09620000
opls_526-348    H    0.30797989    0.32443951    0.99799096    0.11460000
opls_146-349    H    0.35646996    0.31476969    0.00682024    0.11490000
opls_146-350    H    0.33234996    0.48102994    0.53333000    0.11460000
opls_526-351    H    0.28395006    0.49219994    0.52941073    0.11460000
opls_526-352    H    0.23755997    0.58652999    0.63436016    0.11360000
opls_146-353    H    0.21412988    0.67991996    0.61684045    0.11720000
opls_146-354    H    0.15362988    0.58599989    0.80074057    0.11510000
opls_526-355    H    0.17706999    0.49210961    0.81859054    0.11720000
opls_526-356    H    0.16876997    0.38670977    0.63754011    0.11690000
opls_146-357    H    0.14542991    0.30490995    0.63000056    0.11220000
opls_146-358    H    0.22368006    0.17256985    0.91639073    0.11670000
opls_526-359    H    0.24702989    0.25417976    0.92080037    0.11520000
opls_144-360    H    0.17733993    0.73655980    0.64858985    0.10470000
opls_144-361    H    0.39270997    0.35575997    0.89619020    0.09930000
opls_144-362    H    0.18160989    0.13663960    0.84310063    0.11820000
opls_146-363    H    0.12573993    0.00260990    0.89786023    0.09380000
opls_146-364    H    0.15147989    0.07830983    0.91693990    0.12210000
opls_146-365    H    0.10246996    0.21018989    0.41089963    0.11990000
opls_146-366    H    0.07514004    0.13417968    0.39405043    0.11910000
opls_146-367    H    0.57909991    0.52551984    0.45430049    0.11940000
opls_146-368    H    0.62971998    0.49878976    0.53107076    0.11910000
opls_146-369    H    0.63331002    0.68195995    0.44748025    0.12390000
opls_146-370    H    0.58294999    0.70901974    0.36828062    0.12010000
opls_146-371    H    0.11671999    0.95807997    0.65724025    0.11360000
opls_146-372    H    0.05263998    0.10420978    0.66937083    0.12060000
opls_146-373    H    0.00498004    0.11716971    0.65265048    0.11890000
opls_146-374    H    0.99606005    0.86901959    0.53602082    0.12040000
opls_146-375    H    0.04411997    0.85471972    0.55871076    0.11620000
opls_146-376    H    0.93176994    0.01616979    0.54448983    0.11510000
opls_146-377    H    0.92252990    0.96956980    0.30623041    0.11610000
opls_146-378    H    0.89699996    0.89166999    0.29653046    0.12280000
opls_146-379    H    0.94748984    0.76390985    0.80474990    0.11760000
opls_146-380    H    0.97372990    0.84200969    0.81266098    0.11520000
opls_526-381    H    0.77523990    0.61369977    0.67428085    0.11720000
opls_146-382    H    0.72781000    0.64106971    0.66809985    0.12060000
opls_146-383    H    0.70335004    0.51459979    0.48832040    0.11440000
opls_526-384    H    0.75033003    0.48791993    0.49202074    0.12150000
opls_526-385    H    0.81877990    0.35433960    0.70618038    0.11330000
opls_146-386    H    0.83908989    0.26719983    0.70248003    0.11610000
opls_146-387    H    0.89933000    0.36493994    0.49416989    0.11430000
opls_526-388    H    0.87949995    0.45353006    0.49898985    0.11910000
opls_526-389    H    0.88015997    0.57409967    0.75320027    0.11980000
opls_146-390    H    0.90266994    0.66107970    0.71172089    0.11550000
opls_146-391    H    0.84603999    0.76442006    0.20475991    0.11610000
opls_526-392    H    0.82298003    0.67805990    0.24935044    0.11720000
opls_144-393    H    0.87257990    0.21815973    0.63343070    0.10470000
opls_144-394    H    0.67810996    0.63686983    0.58889021    0.09520000
opls_144-395    H    0.88198991    0.81153994    0.30506077    0.11510000
opls_144-396    H    0.96772988    0.18044008    0.37348962    0.11360000
opls_144-397    H    0.93819996    0.26800009    0.35067958    0.12060000
opls_144-398    H    0.90496000    0.13177001    0.72240035    0.10380000
opls_910-399    H    0.79601001    0.44240989    0.63035083    0.27440000
opls_146-400    H    0.56503000    0.70149984    0.08297003    0.12070000
opls_146-401    H    0.54363997    0.80598001    0.84890009    0.11510000
opls_146-402    H    0.47364994    0.80870986    0.01467003    0.11740000
opls_146-403    H    0.49606997    0.70657979    0.25788075    0.12060000
opls_146-404    H    0.55978998    0.57011966    0.66414056    0.12380000
opls_146-405    H    0.53956996    0.48878990    0.81374056    0.10920000
opls_146-406    H    0.48186986    0.52180989    0.34472000    0.08930000
opls_146-407    H    0.50055997    0.60839997    0.19991994    0.11930000
opls_146-408    H    0.53260992    0.41340988    0.99934074    0.11840000
opls_146-409    H    0.56746998    0.31663013    0.18330967    0.11690000
opls_146-410    H    0.52978007    0.24253962    0.86784090    0.11720000
opls_146-411    H    0.49648996    0.34048985    0.67757088    0.10640000
opls_146-412    H    0.44695997    0.50652999    0.40786980    0.23930000
opls_146-413    H    0.40158994    0.48315975    0.40695034    0.11750000
opls_146-414    H    0.43125984    0.38751994    0.93965986    0.11590000
opls_146-415    H    0.47666999    0.41428975    0.93599079    0.10890000
opls_909-416    H    0.47766996    0.90207967    0.77623048    0.27610000
opls_909-417    H    0.50467990    0.89625986    0.69303027    0.27610000
opls_909-418    H    0.58706004    0.21104988    0.24967068    0.27600000
opls_909-419    H    0.57237992    0.18168979    0.11214997    0.27590000
