#======================================================================
# Crystal Data Generated By AuToFF
#----------------------------------------------------------------------

data_AuToFF_phase_1

_cell_length_a                         26.1200
_cell_length_b                         25.7400
_cell_length_c                         3.7100
_cell_angle_alpha                      87.03
_cell_angle_beta                       70.39
_cell_angle_gamma                      120.08
_symmetry_space_group_name_H-M_alt     'P 1'
_symmetry_space_group_IT_number        1

loop_
_space_group_symop_operation_xyz
   'x, y, z'

loop_
   _atom_site_label
   _atom_site_type_symbol
   _atom_site_fract_x
   _atom_site_fract_y
   _atom_site_fract_z
   _atom_site_charge
opls_145-0    C    0.44500978    0.84774019    0.33484097    -0.16010000
opls_523-1    C    0.41518997    0.78596010    0.32481152    -0.11700000
opls_700-2    C    0.44883016    0.75612022    0.28773970    0.00030000
opls_523-3    C    0.51325990    0.78973990    0.25790098    -0.11700000
opls_145-4    C    0.54296980    0.85150017    0.26738066    -0.15200000
opls_145-5    C    0.50929991    0.88098025    0.30855936    0.20240000
opls_531-6    C    0.41677998    0.69028034    0.28322868    0.38720000
opls_142-7    C    0.59665997    0.48929993    0.35846887    0.08590000
opls_145-8    C    0.57964966    0.38470998    0.40326113    -0.12240000
opls_523-9    C    0.60229010    0.34613023    0.41444062    -0.11060000
opls_700-10    C    0.66534978    0.36980003    0.39571007    0.00070000
opls_523-11    C    0.70503977    0.43292988    0.36700059    -0.11440000
opls_145-12    C    0.68229979    0.47144000    0.35632034    -0.11060000
opls_700-13    C    0.61948004    0.44772004    0.37401971    0.05610000
opls_531-14    C    0.68963983    0.32896007    0.40453896    0.38720000
opls_145-15    C    0.62265004    0.06789008    0.36125928    -0.11830000
opls_523-16    C    0.66045972    0.12924979    0.36598130    -0.11830000
opls_700-17    C    0.63447001    0.16619999    0.41236936    0.00200000
opls_523-18    C    0.56971971    0.14023990    0.45468918    -0.12270000
opls_145-19    C    0.53188019    0.07881021    0.45145004    -0.11120000
opls_700-20    C    0.55807982    0.04220992    0.40299071    0.06520000
opls_531-21    C    0.67477992    0.23152991    0.41356100    0.37070000
opls_145-22    C    0.16418007    0.46937012    0.33137004    -0.15370000
opls_523-23    C    0.22738000    0.50166001    0.31514165    -0.11250000
opls_700-24    C    0.25956020    0.56474032    0.30184928    0.00040000
opls_523-25    C    0.22727007    0.59492006    0.30041990    -0.11060000
opls_145-26    C    0.16407996    0.56253002    0.31685037    -0.17060000
opls_145-27    C    0.13197992    0.49978997    0.33164938    0.21260000
opls_531-28    C    0.32612002    0.59868010    0.29249143    0.35770000
opls_145-29    C    0.54567985    0.56823004    0.27943086    -0.15220000
opls_523-30    C    0.51491995    0.59923015    0.26656048    -0.11520000
opls_700-31    C    0.45028990    0.56695007    0.29918962    0.00120000
opls_523-32    C    0.41729001    0.50293025    0.34320925    -0.11440000
opls_145-33    C    0.44811003    0.47205018    0.35684930    -0.15280000
opls_145-34    C    0.51210004    0.50401992    0.32786939    0.20820000
opls_531-35    C    0.41743983    0.59980003    0.28921069    0.38720000
opls_145-36    C    0.94161002    0.42661028    0.35021946    -0.11280000
opls_523-37    C    0.87911003    0.40276997    0.36544936    -0.11200000
opls_700-38    C    0.83828988    0.33986992    0.39343970    0.00030000
opls_523-39    C    0.86119997    0.30130020    0.41088054    -0.10960000
opls_145-40    C    0.92369008    0.32519995    0.39587946    -0.11460000
opls_700-41    C    0.96437976    0.38798998    0.36596049    0.05630000
opls_531-42    C    0.77242992    0.31471002    0.40192981    0.38840000
opls_142-43    C    0.03008970    0.41221991    0.35229073    0.07540000
opls_142-44    C    0.51760971    0.97771021    0.39463135    0.07420000
opls_520-45    N    0.44719986    0.66038019    0.28113067    -0.39700000
opls_750-46    N    0.54058016    0.46927016    0.34679013    -0.31920000
opls_520-47    N    0.74966986    0.35157986    0.39754063    -0.41470000
opls_520-48    N    0.65238987    0.26880999    0.41439011    -0.39400000
opls_520-49    N    0.35622984    0.65909020    0.28918989    -0.40770000
opls_750-50    N    0.54224980    0.94406013    0.32605071    -0.33060000
opls_520-51    N    0.35685986    0.56926000    0.29548987    -0.42440000
opls_750-52    N    0.06737005    0.46961019    0.34366986    -0.33050000
opls_520-53    N    0.73483979    0.25483003    0.40746013    -0.41340000
opls_146-54    H    0.41755987    0.86881009    0.35955056    0.12320000
opls_526-55    H    0.36574001    0.76142012    0.34525080    0.11590000
opls_526-56    H    0.54037992    0.76804008    0.23087050    0.12130000
opls_146-57    H    0.59225016    0.87663018    0.24870954    0.11830000
opls_144-58    H    0.62768995    0.53646032    0.35947924    0.12700000
opls_146-59    H    0.53118999    0.36556028    0.41433959    0.11640000
opls_526-60    H    0.57074980    0.29783001    0.43396165    0.10290000
opls_526-61    H    0.75364022    0.45242021    0.35457893    0.11440000
opls_146-62    H    0.71371983    0.51982009    0.33541153    0.10290000
opls_146-63    H    0.64357998    0.04023986    0.32711161    0.12140000
opls_526-64    H    0.71009013    0.14790001    0.33356909    0.11460000
opls_526-65    H    0.54850981    0.16765009    0.48880119    0.12630000
opls_146-66    H    0.48232984    0.06003997    0.48203168    0.11720000
opls_146-67    H    0.14150004    0.42108023    0.34221967    0.11640000
opls_526-68    H    0.25114997    0.47725989    0.31449085    0.12810000
opls_526-69    H    0.25086008    0.64353006    0.28814980    0.11380000
opls_146-70    H    0.13973017    0.58625023    0.31633924    0.12560000
opls_146-71    H    0.59532001    0.59495997    0.25171095    0.12210000
opls_526-72    H    0.54155970    0.64854999    0.23278129    0.11380000
opls_526-73    H    0.36768010    0.47681020    0.36643002    0.11640000
opls_146-74    H    0.42229005    0.42282999    0.38941009    0.10150000
opls_146-75    H    0.97232994    0.47522993    0.32624090    0.11380000
opls_526-76    H    0.86273963    0.43353980    0.35316143    0.10790000
opls_526-77    H    0.83072996    0.25263003    0.43481155    0.10290000
opls_146-78    H    0.94019006    0.29455997    0.40946899    0.12310000
opls_144-79    H    0.04579988    0.38079996    0.35240959    0.10780000
opls_144-80    H    0.46724984    0.95954986    0.44697170    0.10250000
