#======================================================================
# Crystal Data Generated By AuToFF
#----------------------------------------------------------------------

data_AuToFF_phase_1

_cell_length_a                         60.4500
_cell_length_b                         50.1900
_cell_length_c                         4.4900
_cell_angle_alpha                      90.00
_cell_angle_beta                       113.92
_cell_angle_gamma                      90.00
_symmetry_space_group_name_H-M_alt     'P 1'
_symmetry_space_group_IT_number        1

loop_
_space_group_symop_operation_xyz
   'x, y, z'

loop_
   _atom_site_label
   _atom_site_type_symbol
   _atom_site_fract_x
   _atom_site_fract_y
   _atom_site_fract_z
   _atom_site_charge
opls_507-0    C    0.95258010    0.02177007    0.49495050    0.22470000
opls_716-1    C    0.92955005    0.01309006    0.49744053    -0.13900000
opls_700-2    C    0.84593996    0.14533991    0.22540853    -0.02910000
opls_166-3    C    0.85472996    0.16488006    0.48164030    0.32240000
opls_145-4    C    0.83795006    0.18295995    0.51435909    -0.16600000
opls_700-5    C    0.81315003    0.18162004    0.29963917    0.07730000
opls_145-6    C    0.80469005    0.16242997    0.04807071    -0.07620000
opls_145-7    C    0.82094999    0.14447001    0.01089083    -0.07840000
opls_261-8    C    0.79631995    0.19962004    0.34514919    -0.06940000
opls_261-9    C    0.78243005    0.21463997    0.38909016    -0.06840000
opls_700-10    C    0.76598000    0.23254991    0.44481857    0.15750000
opls_145-11    C    0.74772995    0.22252002    0.52931875    -0.09090000
opls_716-12    C    0.98896996    0.08505001    0.49405877    -0.13870000
opls_507-13    C    0.98165995    0.05719008    0.48943930    0.26020000
opls_700-14    C    0.95878999    0.04863997    0.47149989    -0.06660000
opls_700-15    C    0.93984995    0.06916995    0.42671835    0.07530000
opls_145-16    C    0.91688993    0.06831002    0.15139961    -0.07790000
opls_145-17    C    0.89864003    0.08658996    0.12418958    -0.09340000
opls_145-18    C    0.90328008    0.10615003    0.37174036    0.22730000
opls_145-19    C    0.92638999    0.10758000    0.63673840    -0.11360000
opls_145-20    C    0.94437996    0.08915999    0.66599015    -0.07620000
opls_142-21    C    0.86219002    0.12545009    0.17436050    0.02940000
opls_145-22    C    0.26821992    0.76005001    0.41555951    -0.09240000
opls_143-23    C    0.88939997    0.81353995    0.93158999    0.11780000
opls_507-24    C    0.45258010    0.52177007    0.49495050    0.22480000
opls_716-25    C    0.42955005    0.51309006    0.49744053    -0.13900000
opls_700-26    C    0.34593996    0.64533991    0.22540853    -0.02910000
opls_166-27    C    0.35472996    0.66488006    0.48164030    0.32220000
opls_145-28    C    0.33795006    0.68295995    0.51435909    -0.16600000
opls_700-29    C    0.31315003    0.68162004    0.29963917    0.07730000
opls_145-30    C    0.30469005    0.66242997    0.04807071    -0.07620000
opls_145-31    C    0.32094999    0.64447001    0.01089083    -0.07840000
opls_261-32    C    0.29631995    0.69962004    0.34514919    -0.06930000
opls_261-33    C    0.28243005    0.71463997    0.38909016    -0.06840000
opls_700-34    C    0.26598000    0.73254991    0.44481857    0.15750000
opls_145-35    C    0.24772995    0.72252002    0.52931875    -0.09090000
opls_716-36    C    0.48896996    0.58505001    0.49405877    -0.13870000
opls_507-37    C    0.48165995    0.55719008    0.48943930    0.26020000
opls_700-38    C    0.45878999    0.54863997    0.47149989    -0.06660000
opls_700-39    C    0.43984995    0.56916995    0.42671835    0.07540000
opls_145-40    C    0.41688993    0.56831002    0.15139961    -0.07800000
opls_145-41    C    0.39864003    0.58658996    0.12418958    -0.09340000
opls_145-42    C    0.40328008    0.60615003    0.37174036    0.22720000
opls_145-43    C    0.42638999    0.60758000    0.63673840    -0.11360000
opls_145-44    C    0.44437996    0.58915999    0.66599015    -0.07620000
opls_142-45    C    0.36219002    0.62545009    0.17436050    0.02940000
opls_145-46    C    0.76821992    0.26005001    0.41555951    -0.09240000
opls_143-47    C    0.38939997    0.31353995    0.93158999    0.11780000
opls_507-48    C    0.04742006    0.02177007    0.50504950    0.22470000
opls_716-49    C    0.07044995    0.01309006    0.50255947    -0.13900000
opls_700-50    C    0.15405996    0.14533991    0.77458904    -0.02910000
opls_166-51    C    0.14527004    0.16488006    0.51835970    0.32220000
opls_145-52    C    0.16205003    0.18295995    0.48563848    -0.16600000
opls_700-53    C    0.18684990    0.18162004    0.70035840    0.07730000
opls_145-54    C    0.19530995    0.16242997    0.95192929    -0.07620000
opls_145-55    C    0.17905001    0.14447001    0.98910917    -0.07840000
opls_261-56    C    0.20367998    0.19962004    0.65484837    -0.06940000
opls_261-57    C    0.21756995    0.21463997    0.61090984    -0.06840000
opls_700-58    C    0.23401992    0.23254991    0.55517899    0.15750000
opls_145-59    C    0.25226998    0.22252002    0.47067881    -0.09090000
opls_716-60    C    0.01102997    0.08505001    0.50593879    -0.13870000
opls_507-61    C    0.01833998    0.05719008    0.51055826    0.26020000
opls_700-62    C    0.04121001    0.04863997    0.52850011    -0.06660000
opls_700-63    C    0.06014998    0.06916995    0.57327921    0.07530000
opls_145-64    C    0.08311000    0.06831002    0.84859796    -0.07800000
opls_145-65    C    0.10135990    0.08658996    0.87580798    -0.09340000
opls_145-66    C    0.09672009    0.10615003    0.62825964    0.22720000
opls_145-67    C    0.07360993    0.10758000    0.36325916    -0.11360000
opls_145-68    C    0.05562004    0.08915999    0.33400985    -0.07620000
opls_142-69    C    0.13780998    0.12545009    0.82563950    0.02940000
opls_145-70    C    0.73178008    0.76005001    0.58444049    -0.09240000
opls_143-71    C    0.11060003    0.81353995    0.06841001    0.11780000
opls_507-72    C    0.54742006    0.52177007    0.50504950    0.22470000
opls_716-73    C    0.57044995    0.51309006    0.50255947    -0.13900000
opls_700-74    C    0.65405996    0.64533991    0.77458904    -0.02910000
opls_166-75    C    0.64527004    0.66488006    0.51835970    0.32230000
opls_145-76    C    0.66205003    0.68295995    0.48563848    -0.16600000
opls_700-77    C    0.68684990    0.68162004    0.70035840    0.07730000
opls_145-78    C    0.69530995    0.66242997    0.95192929    -0.07620000
opls_145-79    C    0.67905001    0.64447001    0.98910917    -0.07840000
opls_261-80    C    0.70367998    0.69962004    0.65484837    -0.06940000
opls_261-81    C    0.71756995    0.71463997    0.61090984    -0.06840000
opls_700-82    C    0.73401992    0.73254991    0.55517899    0.15750000
opls_145-83    C    0.75226998    0.72252002    0.47067881    -0.09090000
opls_716-84    C    0.51102997    0.58505001    0.50593879    -0.13870000
opls_507-85    C    0.51833998    0.55719008    0.51055826    0.26020000
opls_700-86    C    0.54121001    0.54863997    0.52850011    -0.06660000
opls_700-87    C    0.56014998    0.56916995    0.57327921    0.07530000
opls_145-88    C    0.58311000    0.56831002    0.84859796    -0.07800000
opls_145-89    C    0.60135990    0.58658996    0.87580798    -0.09340000
opls_145-90    C    0.59672009    0.60615003    0.62825964    0.22720000
opls_145-91    C    0.57360993    0.60758000    0.36325916    -0.11360000
opls_145-92    C    0.55562004    0.58915999    0.33400985    -0.07620000
opls_142-93    C    0.63780998    0.62545009    0.82563950    0.02940000
opls_145-94    C    0.23178008    0.26005001    0.58444049    -0.09240000
opls_143-95    C    0.61060003    0.31353995    0.06841001    0.11780000
opls_507-96    C    0.04742006    0.97822993    0.50504950    0.22470000
opls_716-97    C    0.07044995    0.98690994    0.50255947    -0.13900000
opls_700-98    C    0.15405996    0.85466009    0.77458904    -0.02910000
opls_166-99    C    0.14527004    0.83511994    0.51835970    0.32220000
opls_145-100    C    0.16205003    0.81704005    0.48563848    -0.16590000
opls_700-101    C    0.18684990    0.81837996    0.70035840    0.07730000
opls_145-102    C    0.19530995    0.83757003    0.95192929    -0.07620000
opls_145-103    C    0.17905001    0.85552999    0.98910917    -0.07840000
opls_261-104    C    0.20367998    0.80037996    0.65484837    -0.06940000
opls_261-105    C    0.21756995    0.78536003    0.61090984    -0.06840000
opls_700-106    C    0.23401992    0.76745009    0.55517899    0.15750000
opls_145-107    C    0.25226998    0.77747998    0.47067881    -0.09090000
opls_716-108    C    0.01102997    0.91494999    0.50593879    -0.13860000
opls_507-109    C    0.01833998    0.94280992    0.51055826    0.26020000
opls_700-110    C    0.04121001    0.95136003    0.52850011    -0.06660000
opls_700-111    C    0.06014998    0.93083005    0.57327921    0.07530000
opls_145-112    C    0.08311000    0.93168998    0.84859796    -0.07800000
opls_145-113    C    0.10135990    0.91341004    0.87580798    -0.09340000
opls_145-114    C    0.09672009    0.89384997    0.62825964    0.22720000
opls_145-115    C    0.07360993    0.89242000    0.36325916    -0.11360000
opls_145-116    C    0.05562004    0.91084001    0.33400985    -0.07620000
opls_142-117    C    0.13780998    0.87454991    0.82563950    0.02940000
opls_145-118    C    0.73178008    0.23994999    0.58444049    -0.09230000
opls_143-119    C    0.11060003    0.18646005    0.06841001    0.11780000
opls_507-120    C    0.54742006    0.47822993    0.50504950    0.22480000
opls_716-121    C    0.57044995    0.48690994    0.50255947    -0.13900000
opls_700-122    C    0.65405996    0.35466009    0.77458904    -0.02910000
opls_166-123    C    0.64527004    0.33511994    0.51835970    0.32240000
opls_145-124    C    0.66205003    0.31704005    0.48563848    -0.16600000
opls_700-125    C    0.68684990    0.31837996    0.70035840    0.07730000
opls_145-126    C    0.69530995    0.33757003    0.95192929    -0.07620000
opls_145-127    C    0.67905001    0.35552999    0.98910917    -0.07840000
opls_261-128    C    0.70367998    0.30037996    0.65484837    -0.06940000
opls_261-129    C    0.71756995    0.28536003    0.61090984    -0.06830000
opls_700-130    C    0.73401992    0.26745009    0.55517899    0.15760000
opls_145-131    C    0.75226998    0.27747998    0.47067881    -0.09090000
opls_716-132    C    0.51102997    0.41494999    0.50593879    -0.13870000
opls_507-133    C    0.51833998    0.44280992    0.51055826    0.26020000
opls_700-134    C    0.54121001    0.45136003    0.52850011    -0.06660000
opls_700-135    C    0.56014998    0.43083005    0.57327921    0.07530000
opls_145-136    C    0.58311000    0.43168998    0.84859796    -0.07800000
opls_145-137    C    0.60135990    0.41341004    0.87580798    -0.09340000
opls_145-138    C    0.59672009    0.39384997    0.62825964    0.22720000
opls_145-139    C    0.57360993    0.39242000    0.36325916    -0.11360000
opls_145-140    C    0.55562004    0.41084001    0.33400985    -0.07620000
opls_142-141    C    0.63780998    0.37454991    0.82563950    0.02940000
opls_145-142    C    0.23178008    0.73994999    0.58444049    -0.09240000
opls_181-143    C    0.61060003    0.68646005    0.06841001    -0.17030000
opls_507-144    C    0.95258010    0.97822993    0.49495050    0.22470000
opls_716-145    C    0.92955005    0.98690994    0.49744053    -0.13900000
opls_700-146    C    0.84593996    0.85466009    0.22540853    -0.02910000
opls_166-147    C    0.85472996    0.83511994    0.48164030    0.32230000
opls_145-148    C    0.83795006    0.81704005    0.51435909    -0.16590000
opls_700-149    C    0.81315003    0.81837996    0.29963917    0.07730000
opls_145-150    C    0.80469005    0.83757003    0.04807071    -0.07620000
opls_145-151    C    0.82094999    0.85552999    0.01089083    -0.07840000
opls_261-152    C    0.79631995    0.80037996    0.34514919    -0.06940000
opls_261-153    C    0.78243005    0.78536003    0.38909016    -0.06840000
opls_700-154    C    0.76598000    0.76745009    0.44481857    0.15760000
opls_145-155    C    0.74772995    0.77747998    0.52931875    -0.09080000
opls_716-156    C    0.98896996    0.91494999    0.49405877    -0.13870000
opls_507-157    C    0.98165995    0.94280992    0.48943930    0.26020000
opls_700-158    C    0.95878999    0.95136003    0.47149989    -0.06660000
opls_700-159    C    0.93984995    0.93083005    0.42671835    0.07530000
opls_145-160    C    0.91688993    0.93168998    0.15139961    -0.07800000
opls_145-161    C    0.89864003    0.91341004    0.12418958    -0.09320000
opls_145-162    C    0.90328008    0.89384997    0.37174036    0.22720000
opls_145-163    C    0.92638999    0.89242000    0.63673840    -0.11360000
opls_145-164    C    0.94437996    0.91084001    0.66599015    -0.07620000
opls_142-165    C    0.86219002    0.87454991    0.17436050    0.02940000
opls_145-166    C    0.26821992    0.23994999    0.41555951    -0.09240000
opls_143-167    C    0.88939997    0.18646005    0.93158999    0.11780000
opls_507-168    C    0.45258010    0.47822993    0.49495050    0.22470000
opls_716-169    C    0.42955005    0.48690994    0.49744053    -0.13900000
opls_700-170    C    0.34593996    0.35466009    0.22540853    -0.02910000
opls_166-171    C    0.35472996    0.33511994    0.48164030    0.32230000
opls_145-172    C    0.33795006    0.31704005    0.51435909    -0.16590000
opls_700-173    C    0.31315003    0.31837996    0.29963917    0.07750000
opls_145-174    C    0.30469005    0.33757003    0.04807071    -0.07620000
opls_145-175    C    0.32094999    0.35552999    0.01089083    -0.07840000
opls_261-176    C    0.29631995    0.30037996    0.34514919    -0.06940000
opls_261-177    C    0.28243005    0.28536003    0.38909016    -0.06840000
opls_700-178    C    0.26598000    0.26745009    0.44481857    0.15750000
opls_145-179    C    0.24772995    0.27747998    0.52931875    -0.09090000
opls_716-180    C    0.48896996    0.41494999    0.49405877    -0.13870000
opls_507-181    C    0.48165995    0.44280992    0.48943930    0.26030000
opls_700-182    C    0.45878999    0.45136003    0.47149989    -0.06650000
opls_700-183    C    0.43984995    0.43083005    0.42671835    0.07530000
opls_145-184    C    0.41688993    0.43168998    0.15139961    -0.07800000
opls_145-185    C    0.39864003    0.41341004    0.12418958    -0.09340000
opls_145-186    C    0.40328008    0.39384997    0.37174036    0.22720000
opls_145-187    C    0.42638999    0.39242000    0.63673840    -0.11360000
opls_145-188    C    0.44437996    0.41084001    0.66599015    -0.07610000
opls_142-189    C    0.36219002    0.37454991    0.17436050    0.02940000
opls_145-190    C    0.76821992    0.73994999    0.41555951    -0.09240000
opls_181-191    C    0.38939997    0.68646005    0.93158999    -0.17020000
opls_750-192    N    0.88522994    0.12448994    0.37495889    -0.26640000
opls_750-193    N    0.38522994    0.62448994    0.37495889    -0.26650000
opls_750-194    N    0.11476998    0.12448994    0.62503868    -0.26640000
opls_750-195    N    0.61476998    0.62448994    0.62503868    -0.26650000
opls_750-196    N    0.11476998    0.87551006    0.62503868    -0.26650000
opls_750-197    N    0.61476998    0.37551006    0.62503868    -0.26640000
opls_750-198    N    0.88522994    0.87551006    0.37495889    -0.26650000
opls_750-199    N    0.38522994    0.37551006    0.37495889    -0.26650000
opls_542-200    N    0.96612000    0.00000000    0.51015868    -0.27200000
opls_542-201    N    0.46612000    0.50000000    0.51015868    -0.27200000
opls_542-202    N    0.03387993    0.00000000    0.48983888    -0.27200000
opls_542-203    N    0.53387993    0.50000000    0.48983888    -0.27200000
opls_542-204    N    0.49999996    0.54129010    0.49999878    -0.22960000
opls_542-205    N    0.99999996    0.04129010    0.49999878    -0.22950000
opls_542-206    N    0.49999996    0.45870990    0.49999878    -0.22970000
opls_542-207    N    0.99999996    0.95870990    0.49999878    -0.22960000
opls_180-208    O    0.87989998    0.16526001    0.69680852    -0.19990000
opls_179-209    O    0.37989998    0.66526001    0.69680852    -0.18530000
opls_180-210    O    0.12009995    0.16526001    0.30318904    -0.20000000
opls_179-211    O    0.62009995    0.66526001    0.30318904    -0.18530000
opls_180-212    O    0.12009995    0.83473999    0.30318904    -0.20000000
opls_180-213    O    0.62009995    0.33473999    0.30318904    -0.20000000
opls_180-214    O    0.87989998    0.83473999    0.69680852    -0.19990000
opls_180-215    O    0.37989998    0.33473999    0.69680852    -0.20000000
opls_547-216    H    0.91573003    0.02848994    0.49892919    0.05010000
opls_146-217    H    0.84432998    0.19873003    0.71419000    0.05010000
opls_146-218    H    0.78467996    0.16173003    0.87735024    0.04960000
opls_146-219    H    0.81418001    0.12901992    0.80756121    0.05010000
opls_146-220    H    0.74587004    0.20010998    0.55323960    0.05010000
opls_547-221    H    0.97597991    0.10173003    0.48746824    0.05010000
opls_146-222    H    0.91342001    0.05268002    0.95321085    0.05010000
opls_146-223    H    0.88042005    0.08563997    0.90617074    0.05010000
opls_146-224    H    0.93031997    0.12391990    0.82775919    0.05010000
opls_146-225    H    0.96268993    0.09024009    0.88238877    0.05010000
opls_144-226    H    0.85471993    0.11095995    0.96100010    0.02960000
opls_146-227    H    0.28308999    0.76826997    0.34659887    0.05010000
opls_185-228    H    0.88759993    0.79194999    0.84623950    0.02530000
opls_185-229    H    0.89870003    0.81838992    0.20241840    0.02530000
opls_547-230    H    0.41573003    0.52848994    0.49892919    0.05010000
opls_146-231    H    0.34432998    0.69873003    0.71419000    0.05010000
opls_146-232    H    0.28467996    0.66173003    0.87735024    0.04960000
opls_146-233    H    0.31418001    0.62901992    0.80756121    0.05010000
opls_146-234    H    0.24587004    0.70010998    0.55323960    0.05010000
opls_547-235    H    0.47597991    0.60173003    0.48746824    0.05020000
opls_146-236    H    0.41342001    0.55268002    0.95321085    0.05010000
opls_146-237    H    0.38042005    0.58563997    0.90617074    0.05010000
opls_146-238    H    0.43031997    0.62391990    0.82775919    0.05010000
opls_146-239    H    0.46268993    0.59024009    0.88238877    0.05010000
opls_144-240    H    0.35471993    0.61095995    0.96100010    0.02960000
opls_146-241    H    0.78308999    0.26826997    0.34659887    0.05010000
opls_185-242    H    0.38759993    0.29194999    0.84623950    0.02530000
opls_185-243    H    0.39870003    0.31838992    0.20241840    0.02530000
opls_547-244    H    0.08426989    0.02848994    0.50106837    0.05010000
opls_146-245    H    0.15567002    0.19873003    0.28581000    0.05010000
opls_146-246    H    0.21532004    0.16173003    0.12264976    0.04960000
opls_146-247    H    0.18581999    0.12901992    0.19243879    0.05010000
opls_146-248    H    0.25412996    0.20010998    0.44676040    0.05010000
opls_547-249    H    0.02402001    0.10173003    0.51252933    0.05010000
opls_146-250    H    0.08657999    0.05268002    0.04678915    0.05010000
opls_146-251    H    0.11957995    0.08563997    0.09382926    0.05010000
opls_146-252    H    0.06968003    0.12391990    0.17224081    0.05020000
opls_146-253    H    0.03730999    0.09024009    0.11760879    0.05010000
opls_144-254    H    0.14528007    0.11095995    0.03899990    0.02960000
opls_146-255    H    0.71690993    0.76826997    0.65339869    0.05010000
opls_185-256    H    0.11240007    0.79194999    0.15376050    0.02530000
opls_185-257    H    0.10129990    0.81838992    0.79757917    0.02530000
opls_547-258    H    0.58426989    0.52848994    0.50106837    0.05010000
opls_146-259    H    0.65567002    0.69873003    0.28581000    0.05010000
opls_146-260    H    0.71532004    0.66173003    0.12264976    0.04960000
opls_146-261    H    0.68581999    0.62901992    0.19243879    0.05010000
opls_146-262    H    0.75412996    0.70010998    0.44676040    0.05010000
opls_547-263    H    0.52402001    0.60173003    0.51252933    0.05010000
opls_146-264    H    0.58657999    0.55268002    0.04678915    0.05010000
opls_146-265    H    0.61957995    0.58563997    0.09382926    0.05010000
opls_146-266    H    0.56968003    0.62391990    0.17224081    0.05010000
opls_146-267    H    0.53730999    0.59024009    0.11760879    0.05010000
opls_144-268    H    0.64528007    0.61095995    0.03899990    0.02960000
opls_146-269    H    0.21690993    0.26826997    0.65339869    0.05010000
opls_185-270    H    0.61240007    0.29194999    0.15376050    0.02530000
opls_185-271    H    0.60129990    0.31838992    0.79757917    0.02530000
opls_547-272    H    0.08426989    0.97151006    0.50106837    0.05010000
opls_146-273    H    0.15567002    0.80126997    0.28581000    0.05010000
opls_146-274    H    0.21532004    0.83826997    0.12264976    0.04960000
opls_146-275    H    0.18581999    0.87098008    0.19243879    0.05010000
opls_146-276    H    0.25412996    0.79989002    0.44676040    0.05010000
opls_547-277    H    0.02402001    0.89826997    0.51252933    0.05020000
opls_146-278    H    0.08657999    0.94731998    0.04678915    0.05010000
opls_146-279    H    0.11957995    0.91436003    0.09382926    0.05010000
opls_146-280    H    0.06968003    0.87608010    0.17224081    0.05010000
opls_146-281    H    0.03730999    0.90975991    0.11760879    0.05010000
opls_144-282    H    0.14528007    0.88904005    0.03899990    0.02960000
opls_146-283    H    0.71690993    0.23173003    0.65339869    0.05010000
opls_185-284    H    0.11240007    0.20805001    0.15376050    0.02530000
opls_185-285    H    0.10129990    0.18161008    0.79757917    0.02530000
opls_547-286    H    0.58426989    0.47151006    0.50106837    0.05010000
opls_146-287    H    0.65567002    0.30126997    0.28581000    0.05010000
opls_146-288    H    0.71532004    0.33826997    0.12264976    0.04960000
opls_146-289    H    0.68581999    0.37098008    0.19243879    0.05010000
opls_146-290    H    0.75412996    0.29989002    0.44676040    0.05010000
opls_547-291    H    0.52402001    0.39826997    0.51252933    0.05020000
opls_146-292    H    0.58657999    0.44731998    0.04678915    0.05020000
opls_146-293    H    0.61957995    0.41436003    0.09382926    0.05010000
opls_146-294    H    0.56968003    0.37608010    0.17224081    0.05010000
opls_146-295    H    0.53730999    0.40975991    0.11760879    0.05010000
opls_144-296    H    0.64528007    0.38904005    0.03899990    0.02960000
opls_146-297    H    0.21690993    0.73173003    0.65339869    0.05010000
opls_185-298    H    0.59028000    0.68358996    0.92708991    0.06890000
opls_185-299    H    0.61986995    0.68610002    0.89220026    0.06890000
opls_547-300    H    0.91573003    0.97151006    0.49892919    0.05010000
opls_146-301    H    0.84432998    0.80126997    0.71419000    0.05010000
opls_146-302    H    0.78467996    0.83826997    0.87735024    0.04960000
opls_146-303    H    0.81418001    0.87098008    0.80756121    0.05010000
opls_146-304    H    0.74587004    0.79989002    0.55323960    0.05020000
opls_547-305    H    0.97597991    0.89826997    0.48746824    0.05010000
opls_146-306    H    0.91342001    0.94731998    0.95321085    0.05010000
opls_146-307    H    0.88042005    0.91436003    0.90617074    0.05010000
opls_146-308    H    0.93031997    0.87608010    0.82775919    0.05010000
opls_146-309    H    0.96268993    0.90975991    0.88238877    0.05010000
opls_144-310    H    0.85471993    0.88904005    0.96100010    0.02960000
opls_146-311    H    0.28308999    0.23173003    0.34659887    0.05010000
opls_185-312    H    0.88759993    0.20805001    0.84623950    0.02530000
opls_185-313    H    0.89870003    0.18161008    0.20241840    0.02530000
opls_547-314    H    0.41573003    0.47151006    0.49892919    0.05010000
opls_146-315    H    0.34432998    0.30126997    0.71419000    0.05010000
opls_146-316    H    0.28467996    0.33826997    0.87735024    0.04970000
opls_146-317    H    0.31418001    0.37098008    0.80756121    0.05010000
opls_146-318    H    0.24587004    0.29989002    0.55323960    0.05010000
opls_547-319    H    0.47597991    0.39826997    0.48746824    0.05010000
opls_146-320    H    0.41342001    0.44731998    0.95321085    0.05010000
opls_146-321    H    0.38042005    0.41436003    0.90617074    0.05010000
opls_146-322    H    0.43031997    0.37608010    0.82775919    0.05010000
opls_146-323    H    0.46268993    0.40975991    0.88238877    0.05010000
opls_144-324    H    0.35471993    0.38904005    0.96100010    0.02960000
opls_146-325    H    0.78308999    0.73173003    0.34659887    0.05010000
opls_185-326    H    0.40022009    0.70084001    0.84602996    0.06890000
opls_185-327    H    0.40168000    0.67769994    0.17757902    0.06890000
opls_185-328    H    0.37380000    0.69758996    0.95663890    0.06890000
opls_185-329    H    0.61413996    0.70643993    0.20045951    0.06890000
