#======================================================================
# Crystal Data Generated By AuToFF
#----------------------------------------------------------------------

data_AuToFF_phase_1

_cell_length_a                         26.3252
_cell_length_b                         44.5426
_cell_length_c                         5.6472
_cell_angle_alpha                      90.00
_cell_angle_beta                       110.95
_cell_angle_gamma                      90.00
_symmetry_space_group_name_H-M_alt     'P 1'
_symmetry_space_group_IT_number        1

loop_
_space_group_symop_operation_xyz
   'x, y, z'

loop_
   _atom_site_label
   _atom_site_type_symbol
   _atom_site_fract_x
   _atom_site_fract_y
   _atom_site_fract_z
   _atom_site_charge
opls_750-0    N    0.33815997    0.10492001    0.36045947    -0.32070000
opls_750-1    N    0.83815997    0.60492001    0.36045947    -0.32060000
opls_750-2    N    0.66184003    0.10492001    0.63954053    -0.32070000
opls_750-3    N    0.16184003    0.60492001    0.63954053    -0.32070000
opls_750-4    N    0.66184003    0.89507999    0.63954053    -0.32070000
opls_750-5    N    0.16184003    0.39507999    0.63954053    -0.32070000
opls_750-6    N    0.33815997    0.89507999    0.36045947    -0.32060000
opls_750-7    N    0.83815997    0.39507999    0.36045947    -0.32070000
opls_142-8    C    0.33337010    0.12976993    0.22981941    0.02940000
opls_700-9    C    0.30346978    0.15608002    0.27610981    0.05650000
opls_145-10    C    0.10164006    0.22567003    0.57090036    -0.09120000
opls_145-11    C    0.15653012    0.22478010    0.60591064    -0.11170000
opls_700-12    C    0.17606986    0.23796994    0.42685082    0.07410000
opls_145-13    C    0.13981006    0.25217994    0.21382929    -0.12970000
opls_145-14    C    0.08497997    0.25311006    0.17971968    -0.09020000
opls_700-15    C    0.44995990    0.03359009    0.42426070    0.06590000
opls_145-16    C    0.41827003    0.03459991    0.57861006    -0.09850000
opls_145-17    C    0.37842990    0.05670998    0.54052045    -0.18050000
opls_145-18    C    0.37174971    0.07930992    0.35717915    0.19150000
opls_145-19    C    0.40201996    0.07747999    0.19439957    -0.18940000
opls_145-20    C    0.44072980    0.05482010    0.22853952    -0.12820000
opls_145-21    C    0.06587987    0.23980010    0.35785039    -0.09080000
opls_145-22    C    0.27652003    0.15493999    0.45206944    -0.09500000
opls_145-23    C    0.25263986    0.18109989    0.50734943    -0.16650000
opls_700-24    C    0.25582992    0.20888004    0.39039000    0.06280000
opls_145-25    C    0.28000995    0.20941997    0.20431068    -0.13060000
opls_145-26    C    0.30448008    0.18346998    0.15119039    -0.08850000
opls_700-27    C    0.26568004    0.26264991    0.53778053    -0.02820000
opls_142-28    C    0.83337010    0.62976993    0.22981941    0.02940000
opls_700-29    C    0.80346978    0.65608002    0.27610981    0.05650000
opls_145-30    C    0.60164006    0.72567003    0.57090036    -0.09130000
opls_145-31    C    0.65653012    0.72478010    0.60591064    -0.11170000
opls_700-32    C    0.67606986    0.73796994    0.42685082    0.07410000
opls_145-33    C    0.63981006    0.75217994    0.21382929    -0.12970000
opls_145-34    C    0.58497997    0.75311006    0.17971968    -0.09020000
opls_700-35    C    0.94995990    0.53359009    0.42426070    0.06590000
opls_145-36    C    0.91827003    0.53459991    0.57861006    -0.09850000
opls_145-37    C    0.87842990    0.55670998    0.54052045    -0.18050000
opls_145-38    C    0.87174971    0.57930992    0.35717915    0.19150000
opls_145-39    C    0.90201996    0.57747999    0.19439957    -0.18950000
opls_145-40    C    0.94072980    0.55482010    0.22853952    -0.12820000
opls_145-41    C    0.56587987    0.73980010    0.35785039    -0.09080000
opls_145-42    C    0.77652003    0.65493999    0.45206944    -0.09500000
opls_145-43    C    0.75263986    0.68109989    0.50734943    -0.16650000
opls_700-44    C    0.75582992    0.70888004    0.39039000    0.06280000
opls_145-45    C    0.78000995    0.70941997    0.20431068    -0.13070000
opls_145-46    C    0.80448008    0.68346998    0.15119039    -0.08850000
opls_700-47    C    0.76568004    0.76264991    0.53778053    -0.02820000
opls_142-48    C    0.66662990    0.12976993    0.77018059    0.02940000
opls_700-49    C    0.69652984    0.15608002    0.72389019    0.05650000
opls_145-50    C    0.89835994    0.22567003    0.42909964    -0.09130000
opls_145-51    C    0.84346988    0.22478010    0.39408936    -0.11170000
opls_700-52    C    0.82392976    0.23796994    0.57314918    0.07410000
opls_145-53    C    0.86018994    0.25217994    0.78617071    -0.12970000
opls_145-54    C    0.91502003    0.25311006    0.82028032    -0.09020000
opls_700-55    C    0.55003972    0.03359009    0.57573930    0.06590000
opls_145-56    C    0.58172997    0.03459991    0.42138994    -0.09850000
opls_145-57    C    0.62156972    0.05670998    0.45947955    -0.18050000
opls_145-58    C    0.62824991    0.07930992    0.64282085    0.19150000
opls_145-59    C    0.59798004    0.07747999    0.80560043    -0.18950000
opls_145-60    C    0.55926982    0.05482010    0.77146048    -0.12820000
opls_145-61    C    0.93411975    0.23980010    0.64214961    -0.09070000
opls_145-62    C    0.72347997    0.15493999    0.54793056    -0.09500000
opls_145-63    C    0.74736014    0.18109989    0.49265057    -0.16650000
opls_700-64    C    0.74417008    0.20888004    0.60961000    0.06280000
opls_145-65    C    0.71998967    0.20941997    0.79568932    -0.13070000
opls_145-66    C    0.69551992    0.18346998    0.84880961    -0.08850000
opls_700-67    C    0.73431996    0.26264991    0.46221947    -0.02820000
opls_142-68    C    0.16662990    0.62976993    0.77018059    0.02940000
opls_700-69    C    0.19652984    0.65608002    0.72389019    0.05650000
opls_145-70    C    0.39835994    0.72567003    0.42909964    -0.09130000
opls_145-71    C    0.34346988    0.72478010    0.39408936    -0.11170000
opls_700-72    C    0.32392976    0.73796994    0.57314918    0.07410000
opls_145-73    C    0.36018994    0.75217994    0.78617071    -0.12970000
opls_145-74    C    0.41502003    0.75311006    0.82028032    -0.09020000
opls_700-75    C    0.05003972    0.53359009    0.57573930    0.06590000
opls_145-76    C    0.08172997    0.53459991    0.42138994    -0.09850000
opls_145-77    C    0.12156972    0.55670998    0.45947955    -0.18050000
opls_145-78    C    0.12824991    0.57930992    0.64282085    0.19150000
opls_145-79    C    0.09798004    0.57747999    0.80560043    -0.18950000
opls_145-80    C    0.05926982    0.55482010    0.77146048    -0.12820000
opls_145-81    C    0.43411975    0.73980010    0.64214961    -0.09080000
opls_145-82    C    0.22347997    0.65493999    0.54793056    -0.09500000
opls_145-83    C    0.24736014    0.68109989    0.49265057    -0.16650000
opls_700-84    C    0.24417008    0.70888004    0.60961000    0.06280000
opls_145-85    C    0.21998967    0.70941997    0.79568932    -0.13070000
opls_145-86    C    0.19551992    0.68346998    0.84880961    -0.08850000
opls_700-87    C    0.23431996    0.76264991    0.46221947    -0.02820000
opls_142-88    C    0.66662990    0.87023007    0.77018059    0.02940000
opls_700-89    C    0.69652984    0.84391998    0.72389019    0.05650000
opls_145-90    C    0.89835994    0.77432997    0.42909964    -0.09130000
opls_145-91    C    0.84346988    0.77521990    0.39408936    -0.11170000
opls_700-92    C    0.82392976    0.76203006    0.57314918    0.07410000
opls_145-93    C    0.86018994    0.74782006    0.78617071    -0.12970000
opls_145-94    C    0.91502003    0.74688994    0.82028032    -0.09020000
opls_700-95    C    0.55003972    0.96640991    0.57573930    0.06590000
opls_145-96    C    0.58172997    0.96540009    0.42138994    -0.09850000
opls_145-97    C    0.62156972    0.94329002    0.45947955    -0.18050000
opls_145-98    C    0.62824991    0.92069008    0.64282085    0.19160000
opls_145-99    C    0.59798004    0.92252001    0.80560043    -0.18950000
opls_145-100    C    0.55926982    0.94517990    0.77146048    -0.12820000
opls_145-101    C    0.93411975    0.76019990    0.64214961    -0.09080000
opls_145-102    C    0.72347997    0.84506001    0.54793056    -0.09500000
opls_145-103    C    0.74736014    0.81890011    0.49265057    -0.16650000
opls_700-104    C    0.74417008    0.79111996    0.60961000    0.06280000
opls_145-105    C    0.71998967    0.79058003    0.79568932    -0.13070000
opls_145-106    C    0.69551992    0.81653002    0.84880961    -0.08840000
opls_700-107    C    0.73431996    0.73735009    0.46221947    -0.02820000
opls_142-108    C    0.16662990    0.37023007    0.77018059    0.02940000
opls_700-109    C    0.19652984    0.34391998    0.72389019    0.05650000
opls_145-110    C    0.39835994    0.27432997    0.42909964    -0.09130000
opls_145-111    C    0.34346988    0.27521990    0.39408936    -0.11160000
opls_700-112    C    0.32392976    0.26203006    0.57314918    0.07410000
opls_145-113    C    0.36018994    0.24782006    0.78617071    -0.12970000
opls_145-114    C    0.41502003    0.24688994    0.82028032    -0.09020000
opls_700-115    C    0.05003972    0.46640991    0.57573930    0.06600000
opls_145-116    C    0.08172997    0.46540009    0.42138994    -0.09850000
opls_145-117    C    0.12156972    0.44329002    0.45947955    -0.18050000
opls_145-118    C    0.12824991    0.42069008    0.64282085    0.19150000
opls_145-119    C    0.09798004    0.42252001    0.80560043    -0.18950000
opls_145-120    C    0.05926982    0.44517990    0.77146048    -0.12810000
opls_145-121    C    0.43411975    0.26019990    0.64214961    -0.09080000
opls_145-122    C    0.22347997    0.34506001    0.54793056    -0.09500000
opls_145-123    C    0.24736014    0.31890011    0.49265057    -0.16650000
opls_700-124    C    0.24417008    0.29111996    0.60961000    0.06280000
opls_145-125    C    0.21998967    0.29058003    0.79568932    -0.13070000
opls_145-126    C    0.19551992    0.31653002    0.84880961    -0.08850000
opls_700-127    C    0.23431996    0.23735009    0.46221947    -0.02820000
opls_142-128    C    0.33337010    0.87023007    0.22981941    0.02940000
opls_700-129    C    0.30346978    0.84391998    0.27610981    0.05650000
opls_145-130    C    0.10164006    0.77432997    0.57090036    -0.09130000
opls_145-131    C    0.15653012    0.77521990    0.60591064    -0.11170000
opls_700-132    C    0.17606986    0.76203006    0.42685082    0.07410000
opls_145-133    C    0.13981006    0.74782006    0.21382929    -0.12970000
opls_145-134    C    0.08497997    0.74688994    0.17971968    -0.09020000
opls_700-135    C    0.44995990    0.96640991    0.42426070    0.06590000
opls_145-136    C    0.41827003    0.96540009    0.57861006    -0.09850000
opls_145-137    C    0.37842990    0.94329002    0.54052045    -0.18050000
opls_145-138    C    0.37174971    0.92069008    0.35717915    0.19150000
opls_145-139    C    0.40201996    0.92252001    0.19439957    -0.18940000
opls_145-140    C    0.44072980    0.94517990    0.22853952    -0.12810000
opls_145-141    C    0.06587987    0.76019990    0.35785039    -0.09080000
opls_145-142    C    0.27652003    0.84506001    0.45206944    -0.09500000
opls_145-143    C    0.25263986    0.81890011    0.50734943    -0.16650000
opls_700-144    C    0.25582992    0.79111996    0.39039000    0.06280000
opls_145-145    C    0.28000995    0.79058003    0.20431068    -0.13060000
opls_145-146    C    0.30448008    0.81653002    0.15119039    -0.08840000
opls_700-147    C    0.26568004    0.73735009    0.53778053    -0.02820000
opls_142-148    C    0.83337010    0.37023007    0.22981941    0.02940000
opls_700-149    C    0.80346978    0.34391998    0.27610981    0.05650000
opls_145-150    C    0.60164006    0.27432997    0.57090036    -0.09130000
opls_145-151    C    0.65653012    0.27521990    0.60591064    -0.11170000
opls_700-152    C    0.67606986    0.26203006    0.42685082    0.07410000
opls_145-153    C    0.63981006    0.24782006    0.21382929    -0.12970000
opls_145-154    C    0.58497997    0.24688994    0.17971968    -0.09010000
opls_700-155    C    0.94995990    0.46640991    0.42426070    0.06590000
opls_145-156    C    0.91827003    0.46540009    0.57861006    -0.09850000
opls_145-157    C    0.87842990    0.44329002    0.54052045    -0.18050000
opls_145-158    C    0.87174971    0.42069008    0.35717915    0.19150000
opls_145-159    C    0.90201996    0.42252001    0.19439957    -0.18950000
opls_145-160    C    0.94072980    0.44517990    0.22853952    -0.12820000
opls_145-161    C    0.56587987    0.26019990    0.35785039    -0.09080000
opls_145-162    C    0.77652003    0.34506001    0.45206944    -0.09490000
opls_145-163    C    0.75263986    0.31890011    0.50734943    -0.16650000
opls_700-164    C    0.75582992    0.29111996    0.39039000    0.06280000
opls_145-165    C    0.78000995    0.29058003    0.20431068    -0.13070000
opls_145-166    C    0.80448008    0.31653002    0.15119039    -0.08850000
opls_700-167    C    0.76568004    0.23735009    0.53778053    -0.02820000
opls_700-168    C    0.99999981    0.48461001    0.50000000    -0.02770000
opls_700-169    C    0.49999981    0.98461001    0.50000000    -0.02770000
opls_700-170    C    0.99999981    0.51538999    0.50000000    -0.02770000
opls_700-171    C    0.49999981    0.01538999    0.50000000    -0.02770000
opls_144-172    H    0.35475006    0.13280994    0.09891010    0.10900000
opls_146-173    H    0.08686986    0.21555006    0.70976018    0.10860000
opls_146-174    H    0.18367989    0.21439992    0.77511054    0.10900000
opls_146-175    H    0.05733014    0.26415005    0.01500982    0.09850000
opls_146-176    H    0.35507984    0.05737002    0.66508908    0.11240000
opls_146-177    H    0.39776019    0.09384005    0.04622024    0.11490000
opls_146-178    H    0.46562996    0.05482010    0.11070976    0.11160000
opls_146-179    H    0.27494975    0.13409006    0.55126965    0.10880000
opls_146-180    H    0.23322994    0.17965004    0.64719903    0.11660000
opls_146-181    H    0.32497996    0.18488009    0.01479935    0.11000000
opls_146-182    H    0.15384992    0.73750006    0.07412948    0.11460000
opls_146-183    H    0.21955993    0.73009995    0.89769013    0.11040000
opls_146-184    H    0.02343002    0.75951000    0.33115088    0.10900000
opls_146-185    H    0.57483986    0.98278996    0.26361047    0.04030000
opls_144-186    H    0.85475006    0.63280994    0.09891010    0.10900000
opls_146-187    H    0.58686986    0.71555006    0.70976018    0.10860000
opls_146-188    H    0.68367989    0.71439992    0.77511054    0.10900000
opls_146-189    H    0.55733014    0.76415005    0.01500982    0.09850000
opls_146-190    H    0.85507984    0.55737002    0.66508908    0.11230000
opls_146-191    H    0.89776019    0.59384005    0.04622024    0.11490000
opls_146-192    H    0.96562996    0.55482010    0.11070976    0.11150000
opls_146-193    H    0.77494975    0.63409006    0.55126965    0.10880000
opls_146-194    H    0.73322994    0.67965004    0.64719903    0.11660000
opls_146-195    H    0.82497996    0.68488009    0.01479935    0.11000000
opls_146-196    H    0.65384992    0.23750006    0.07412948    0.11460000
opls_146-197    H    0.71955993    0.23009995    0.89769013    0.11040000
opls_146-198    H    0.52343002    0.25951000    0.33115088    0.10910000
opls_146-199    H    0.07483986    0.48278996    0.26361047    0.04030000
opls_144-200    H    0.64524994    0.13280994    0.90108990    0.10900000
opls_146-201    H    0.91312976    0.21555006    0.29023982    0.10810000
opls_146-202    H    0.81632011    0.21439992    0.22488946    0.10900000
opls_146-203    H    0.94266986    0.26415005    0.98499018    0.09850000
opls_146-204    H    0.64492001    0.05737002    0.33490902    0.11230000
opls_146-205    H    0.60223981    0.09384005    0.95377976    0.11490000
opls_146-206    H    0.53437004    0.05482010    0.88929024    0.11150000
opls_146-207    H    0.72504987    0.13409006    0.44873035    0.10880000
opls_146-208    H    0.76676991    0.17965004    0.35279908    0.11660000
opls_146-209    H    0.67502004    0.18488009    0.98520065    0.11000000
opls_146-210    H    0.84615008    0.73750006    0.92587052    0.11460000
opls_146-211    H    0.78044007    0.73009995    0.10230987    0.11040000
opls_146-212    H    0.97656998    0.75951000    0.66884912    0.10900000
opls_146-213    H    0.42515976    0.98278996    0.73638953    0.04030000
opls_144-214    H    0.14524994    0.63280994    0.90108990    0.10900000
opls_146-215    H    0.41312976    0.71555006    0.29023982    0.10810000
opls_146-216    H    0.31632011    0.71439992    0.22488946    0.10910000
opls_146-217    H    0.44266986    0.76415005    0.98499018    0.09850000
opls_146-218    H    0.14492001    0.55737002    0.33490902    0.11250000
opls_146-219    H    0.10223981    0.59384005    0.95377976    0.11490000
opls_146-220    H    0.03437004    0.55482010    0.88929024    0.11150000
opls_146-221    H    0.22504987    0.63409006    0.44873035    0.10890000
opls_146-222    H    0.26676991    0.67965004    0.35279908    0.11660000
opls_146-223    H    0.17502004    0.68488009    0.98520065    0.11010000
opls_146-224    H    0.34615008    0.23750006    0.92587052    0.11460000
opls_146-225    H    0.28044007    0.23009995    0.10230987    0.11040000
opls_146-226    H    0.47656998    0.25951000    0.66884912    0.10900000
opls_146-227    H    0.92515976    0.48278996    0.73638953    0.04030000
opls_144-228    H    0.64524994    0.86719006    0.90108990    0.10900000
opls_146-229    H    0.91312976    0.78444994    0.29023982    0.10810000
opls_146-230    H    0.81632011    0.78560008    0.22488946    0.10900000
opls_146-231    H    0.94266986    0.73584995    0.98499018    0.09850000
opls_146-232    H    0.64492001    0.94262998    0.33490902    0.11230000
opls_146-233    H    0.60223981    0.90615995    0.95377976    0.11490000
opls_146-234    H    0.53437004    0.94517990    0.88929024    0.11160000
opls_146-235    H    0.72504987    0.86590994    0.44873035    0.10880000
opls_146-236    H    0.76676991    0.82034996    0.35279908    0.11660000
opls_146-237    H    0.67502004    0.81511991    0.98520065    0.11000000
opls_146-238    H    0.84615008    0.26249994    0.92587052    0.11460000
opls_146-239    H    0.78044007    0.26990005    0.10230987    0.11040000
opls_146-240    H    0.97656998    0.24049000    0.66884912    0.10900000
opls_146-241    H    0.42515976    0.01721004    0.73638953    0.04030000
opls_144-242    H    0.14524994    0.36719006    0.90108990    0.10900000
opls_146-243    H    0.41312976    0.28444994    0.29023982    0.10810000
opls_146-244    H    0.31632011    0.28560008    0.22488946    0.10900000
opls_146-245    H    0.44266986    0.23584995    0.98499018    0.09860000
opls_146-246    H    0.14492001    0.44262998    0.33490902    0.11230000
opls_146-247    H    0.10223981    0.40615995    0.95377976    0.11490000
opls_146-248    H    0.03437004    0.44517990    0.88929024    0.11150000
opls_146-249    H    0.22504987    0.36590994    0.44873035    0.10880000
opls_146-250    H    0.26676991    0.32034996    0.35279908    0.11660000
opls_146-251    H    0.17502004    0.31511991    0.98520065    0.11010000
opls_146-252    H    0.34615008    0.76249994    0.92587052    0.11460000
opls_146-253    H    0.28044007    0.76990005    0.10230987    0.11040000
opls_146-254    H    0.47656998    0.74049000    0.66884912    0.10900000
opls_146-255    H    0.92515976    0.51721004    0.73638953    0.04030000
opls_144-256    H    0.35475006    0.86719006    0.09891010    0.10900000
opls_146-257    H    0.08686986    0.78444994    0.70976018    0.10860000
opls_146-258    H    0.18367989    0.78560008    0.77511054    0.10900000
opls_146-259    H    0.05733014    0.73584995    0.01500982    0.09850000
opls_146-260    H    0.35507984    0.94262998    0.66508908    0.11230000
opls_146-261    H    0.39776019    0.90615995    0.04622024    0.11500000
opls_146-262    H    0.46562996    0.94517990    0.11070976    0.11150000
opls_146-263    H    0.27494975    0.86590994    0.55126965    0.10880000
opls_146-264    H    0.23322994    0.82034996    0.64719903    0.11660000
opls_146-265    H    0.32497996    0.81511991    0.01479935    0.11000000
opls_146-266    H    0.15384992    0.26249994    0.07412948    0.11460000
opls_146-267    H    0.21955993    0.26990005    0.89769013    0.11050000
opls_146-268    H    0.02343002    0.24049000    0.33115088    0.10900000
opls_146-269    H    0.57483986    0.01721004    0.26361047    0.04030000
opls_144-270    H    0.85475006    0.36719006    0.09891010    0.10900000
opls_146-271    H    0.58686986    0.28444994    0.70976018    0.10860000
opls_146-272    H    0.68367989    0.28560008    0.77511054    0.10900000
opls_146-273    H    0.55733014    0.23584995    0.01500982    0.09860000
opls_146-274    H    0.85507984    0.44262998    0.66508908    0.11230000
opls_146-275    H    0.89776019    0.40615995    0.04622024    0.11490000
opls_146-276    H    0.96562996    0.44517990    0.11070976    0.11150000
opls_146-277    H    0.77494975    0.36590994    0.55126965    0.10890000
opls_146-278    H    0.73322994    0.32034996    0.64719903    0.11660000
opls_146-279    H    0.82497996    0.31511991    0.01479935    0.11000000
opls_146-280    H    0.65384992    0.76249994    0.07412948    0.11460000
opls_146-281    H    0.71955993    0.76990005    0.89769013    0.11040000
opls_146-282    H    0.52343002    0.74049000    0.33115088    0.10900000
opls_146-283    H    0.07483986    0.51721004    0.26361047    0.04030000
