#======================================================================
# Crystal Data Generated By AuToFF
#----------------------------------------------------------------------

data_AuToFF_phase_1

_cell_length_a                         25.5478
_cell_length_b                         25.6160
_cell_length_c                         3.6261
_cell_angle_alpha                      90.00
_cell_angle_beta                       90.00
_cell_angle_gamma                      90.00
_symmetry_space_group_name_H-M_alt     'P 1'
_symmetry_space_group_IT_number        1

loop_
_space_group_symop_operation_xyz
   'x, y, z'

loop_
   _atom_site_label
   _atom_site_type_symbol
   _atom_site_fract_x
   _atom_site_fract_y
   _atom_site_fract_z
   _atom_site_charge
opls_145-0    C    0.55719005    0.79928014    0.49939880    0.24640000
opls_145-1    C    0.51131017    0.77493988    0.62443948    -0.12700000
opls_145-2    C    0.50772982    0.72058011    0.63050109    -0.07060000
opls_700-3    C    0.54943987    0.68930981    0.50798930    0.08500000
opls_145-4    C    0.59510017    0.71420987    0.38238879    -0.07080000
opls_145-5    C    0.59908994    0.76860009    0.38056866    -0.10520000
opls_700-6    C    0.54523990    0.63087016    0.51105871    -0.06260000
opls_507-7    C    0.58988015    0.60071010    0.59488983    0.22270000
opls_716-8    C    0.63937991    0.62199992    0.73055900    -0.13170000
opls_716-9    C    0.67325993    0.58321986    0.72916081    -0.13170000
opls_507-10    C    0.64521016    0.53735009    0.59268912    0.22270000
opls_700-11    C    0.66896015    0.48915014    0.50667108    -0.06580000
opls_700-12    C    0.72754993    0.48522017    0.50386917    0.08570000
opls_507-13    C    0.63853013    0.44449016    0.42822040    0.23070000
opls_507-14    C    0.57513015    0.38941013    0.43277902    0.23150000
opls_716-15    C    0.61812015    0.36305981    0.29418935    -0.14090000
opls_716-16    C    0.65861013    0.39823001    0.29137917    -0.14070000
opls_700-17    C    0.52243990    0.30714983    0.51459971    0.08690000
opls_145-18    C    0.47663008    0.28228998    0.39145087    -0.07080000
opls_145-19    C    0.47263013    0.22790990    0.38950112    -0.10520000
opls_145-20    C    0.51467015    0.19719004    0.50581892    0.24380000
opls_145-21    C    0.56067019    0.22149984    0.62874990    -0.12700000
opls_145-22    C    0.56427011    0.27586001    0.63486942    -0.07080000
opls_700-23    C    0.52670993    0.36556996    0.51665977    -0.06670000
opls_145-24    C    0.75856982    0.52670987    0.37559086    -0.07080000
opls_145-25    C    0.81312011    0.52319019    0.37647059    -0.12700000
opls_145-26    C    0.83780991    0.47761985    0.50242961    0.24810000
opls_145-27    C    0.80732000    0.43602007    0.62772952    -0.10510000
opls_145-28    C    0.75281981    0.43990006    0.63042111    -0.07080000
opls_507-29    C    0.48231002    0.39577998    0.60592096    0.22460000
opls_716-30    C    0.43313984    0.37448001    0.74742009    -0.13170000
opls_716-31    C    0.39928017    0.41327998    0.75013927    -0.13170000
opls_507-32    C    0.42698001    0.45915014    0.61009073    0.23490000
opls_700-33    C    0.40295016    0.50725992    0.52480075    -0.06300000
opls_700-34    C    0.34430010    0.51103998    0.52613000    0.08500000
opls_145-35    C    0.31323010    0.46904981    0.40702132    -0.07080000
opls_145-36    C    0.25868999    0.47246994    0.40942886    -0.12700000
opls_145-37    C    0.23400997    0.51845995    0.52726897    0.24790000
opls_145-38    C    0.26449988    0.56061993    0.64290009    -0.10520000
opls_145-39    C    0.31902003    0.55676999    0.64520008    -0.07080000
opls_507-40    C    0.43318994    0.55186993    0.44063043    0.23150000
opls_716-41    C    0.41281989    0.59798017    0.30316042    -0.14070000
opls_716-42    C    0.45332005    0.63313007    0.29897135    -0.14000000
opls_507-43    C    0.49662006    0.60694995    0.43414964    0.23150000
opls_142-44    C    0.92497006    0.51089983    0.43085960    0.01670000
opls_142-45    C    0.54908016    0.11040990    0.54384876    0.01670000
opls_142-46    C    0.14704984    0.48392997    0.49599018    0.01670000
opls_142-47    C    0.52285989    0.88605988    0.54224098    0.01670000
opls_700-48    C    0.08999992    0.49061017    0.48215990    -0.02880000
opls_166-49    C    0.05706988    0.44712016    0.52220016    0.25360000
opls_145-50    C    0.06845991    0.54016006    0.42355975    -0.17860000
opls_700-51    C    0.54262989    0.05344004    0.53964038    -0.03370000
opls_166-52    C    0.58689006    0.02097010    0.53325060    0.30850000
opls_145-53    C    0.49244984    0.03149984    0.54238990    -0.15550000
opls_700-54    C    0.52931994    0.94303014    0.53881029    -0.03370000
opls_145-55    C    0.57948982    0.96496994    0.53713080    -0.15550000
opls_166-56    C    0.48504998    0.97550008    0.53774027    0.30830000
opls_465-57    C    0.04996007    0.35441013    0.68731971    0.62630000
opls_465-58    C    0.38957014    0.98128982    0.47072061    0.65160000
opls_141-59    C    0.68223996    0.01516982    0.45802929    0.54340000
opls_700-60    C    0.98205990    0.50417005    0.44136124    -0.02830000
opls_145-61    C    0.00361010    0.45462016    0.49963046    -0.17860000
opls_166-62    C    0.01502008    0.54756012    0.39659965    0.26630000
opls_465-63    C    0.02216982    0.64001015    0.22576873    0.62970000
opls_700-64    C    0.73473998    0.03574016    0.52049033    -0.00410000
opls_143-65    C    0.78117998    0.00720019    0.46197016    -0.28410000
opls_700-66    C    0.33897009    0.95556996    0.53622073    -0.00860000
opls_143-67    C    0.29242009    0.98402990    0.48032045    -0.28410000
opls_700-68    C    0.99956004    0.69077998    0.23282039    0.02370000
opls_143-69    C    0.02920995    0.73525999    0.13906125    -0.28430000
opls_700-70    C    0.07533995    0.30032011    0.67495932    -0.00620000
opls_143-71    C    0.04574993    0.25568004    0.76594964    -0.28410000
opls_143-72    C    0.73844989    0.08704013    0.63553956    -0.28390000
opls_143-73    C    0.33546998    0.90420987    0.65045090    -0.28390000
opls_143-74    C    0.12718003    0.29240006    0.57527923    -0.28400000
opls_143-75    C    0.94775989    0.69555005    0.33272938    -0.28400000
opls_542-76    N    0.59479994    0.54931996    0.51993050    -0.27620000
opls_542-77    N    0.58718990    0.43956004    0.50993905    -0.27190000
opls_750-78    N    0.56219988    0.85490982    0.49207137    -0.26830000
opls_750-79    N    0.89357988    0.47269012    0.50817959    -0.26830000
opls_750-80    N    0.50965993    0.14157011    0.49782962    -0.26830000
opls_542-81    N    0.47721996    0.44717013    0.53144977    -0.26030000
opls_750-82    N    0.17825997    0.52358994    0.52518960    -0.26830000
opls_542-83    N    0.48472002    0.55688983    0.51590966    -0.26660000
opls_473-84    O    0.08015994    0.39751991    0.57193955    -0.21090000
opls_473-85    O    0.43504998    0.95202998    0.54764072    -0.21090000
opls_473-86    O    0.63689985    0.04444019    0.53868895    -0.21090000
opls_473-87    O    0.99194999    0.59711001    0.34440032    -0.21130000
opls_272-88    O    0.68066996    0.96797002    0.32555914    -0.34870000
opls_466-89    O    0.39269996    0.02347986    0.33911916    -0.32890000
opls_466-90    O    0.06741990    0.63118012    0.10522876    -0.37600000
opls_466-91    O    0.00735993    0.35626991    0.80527012    -0.32920000
opls_146-92    H    0.47679996    0.79957019    0.72153002    0.05170000
opls_146-93    H    0.47057985    0.70095019    0.73590083    0.05170000
opls_146-94    H    0.62959002    0.68998009    0.27997022    0.05170000
opls_146-95    H    0.63674994    0.78792005    0.28153112    0.05170000
opls_547-96    H    0.64213983    0.66490006    0.81183089    0.05170000
opls_547-97    H    0.71522010    0.59009994    0.82435123    0.05170000
opls_547-98    H    0.61445017    0.32032987    0.21025896    0.05170000
opls_547-99    H    0.70142987    0.39589983    0.20437109    0.05170000
opls_146-100    H    0.44202984    0.30654981    0.29118888    0.05170000
opls_146-101    H    0.43493999    0.20842989    0.29268912    0.05170000
opls_146-102    H    0.59527004    0.19685002    0.72406994    0.05170000
opls_146-103    H    0.60153007    0.29548017    0.73847108    0.05170000
opls_146-104    H    0.73926013    0.56388000    0.26890874    0.05170000
opls_146-105    H    0.83773006    0.55740006    0.27465045    0.05170000
opls_146-106    H    0.82690995    0.39866997    0.72847136    0.05170000
opls_146-107    H    0.72813002    0.40600016    0.73635035    0.05170000
opls_547-108    H    0.43057015    0.33157011    0.82884918    0.05170000
opls_547-109    H    0.35755995    0.40641982    0.85056948    0.05170000
opls_146-110    H    0.33249986    0.43150999    0.30656077    0.05170000
opls_146-111    H    0.23406986    0.43782011    0.31544083    0.05170000
opls_146-112    H    0.24490015    0.59837016    0.73590910    0.05170000
opls_146-113    H    0.34373997    0.59103998    0.74470919    0.05170000
opls_547-114    H    0.36980992    0.60024008    0.22098949    0.05170000
opls_547-115    H    0.44649011    0.67461001    0.19581920    0.05170000
opls_144-116    H    0.90841990    0.55071986    0.35272883    0.03050000
opls_144-117    H    0.58996000    0.12706004    0.58896059    0.03050000
opls_144-118    H    0.16374013    0.44272017    0.48043077    0.03050000
opls_144-119    H    0.48205990    0.86938983    0.59048013    0.03050000
opls_146-120    H    0.09516984    0.57561017    0.39690025    0.05170000
opls_146-121    H    0.45651015    0.05785993    0.54839083    0.05170000
opls_146-122    H    0.61544008    0.93860985    0.53882132    0.05170000
opls_146-123    H    0.97688999    0.41923017    0.52970961    0.05170000
opls_144-124    H    0.78101989    0.97189998    0.27048896    0.11840000
opls_144-125    H    0.81889987    0.01941989    0.60613055    0.11840000
opls_144-126    H    0.26204996    0.96952998    0.27398031    0.11840000
opls_144-127    H    0.28514001    0.02154981    0.64144949    0.11840000
opls_144-128    H    0.06431004    0.73139991    0.94686026    0.11840000
opls_144-129    H    0.01809001    0.77508003    0.25545076    0.11840000
opls_144-130    H    0.05719005    0.21595019    0.64952980    0.11840000
opls_144-131    H    0.01038994    0.25931996    0.95593889    0.11840000
opls_144-132    H    0.77851009    0.10608994    0.66813105    0.11840000
opls_144-133    H    0.70144983    0.11029981    0.69784893    0.11840000
opls_144-134    H    0.37230016    0.87923993    0.67080886    0.11840000
opls_144-135    H    0.29576010    0.88681996    0.72429883    0.11840000
opls_144-136    H    0.13731985    0.26305005    0.34999862    0.11840000
opls_144-137    H    0.15962001    0.31524008    0.71867020    0.11840000
opls_144-138    H    0.91664018    0.67113991    0.18768925    0.11840000
opls_144-139    H    0.93601015    0.72391006    0.56045062    0.11840000
