#======================================================================
# Crystal Data Generated By AuToFF
#----------------------------------------------------------------------

data_AuToFF_phase_1

_cell_length_a                         47.1066
_cell_length_b                         47.9596
_cell_length_c                         4.5810
_cell_angle_alpha                      82.00
_cell_angle_beta                       89.00
_cell_angle_gamma                      60.00
_symmetry_space_group_name_H-M_alt     'P 1'
_symmetry_space_group_IT_number        1

loop_
_space_group_symop_operation_xyz
   'x, y, z'

loop_
   _atom_site_label
   _atom_site_type_symbol
   _atom_site_fract_x
   _atom_site_fract_y
   _atom_site_fract_z
   _atom_site_charge
opls_700-0    C    0.29270006    0.14219999    0.08090052    0.06860000
opls_145-1    C    0.30940004    0.12699998    0.84129964    -0.12930000
opls_145-2    C    0.33479991    0.13110011    0.71770063    -0.13360000
opls_700-3    C    0.34570000    0.14950004    0.84749880    0.06750000
opls_145-4    C    0.32819996    0.16580012    0.07920001    -0.13230000
opls_145-5    C    0.30270000    0.16199994    0.19970053    -0.13470000
opls_700-6    C    0.26559992    0.13800011    0.20519961    0.06640000
opls_145-7    C    0.25550003    0.11830001    0.08520041    -0.13470000
opls_145-8    C    0.22969986    0.11490007    0.20299998    -0.12930000
opls_700-9    C    0.21210003    0.13120003    0.43399889    0.06670000
opls_145-10    C    0.22320004    0.14929997    0.56599890    -0.14770000
opls_145-11    C    0.24879989    0.15320008    0.44459953    -0.13130000
opls_700-12    C    0.37670008    0.14880000    0.76079885    -0.00340000
opls_700-13    C    0.18059999    0.13249994    0.51540074    0.00330000
opls_142-14    C    0.39130000    0.15990001    0.93930031    -0.10230000
opls_142-15    C    0.16619996    0.12160009    0.33519875    -0.10230000
opls_423-16    C    0.16399989    0.14980000    0.74719911    0.16380000
opls_423-17    C    0.39319984    0.13200014    0.52639890    0.23050000
opls_700-18    C    0.42189993    0.16080004    0.91839939    0.12540000
opls_145-19    C    0.44719999    0.14540010    0.72649916    -0.13010000
opls_145-20    C    0.42700001    0.17720012    0.12629996    -0.13250000
opls_145-21    C    0.47599988    0.14670003    0.74480072    -0.13200000
opls_145-22    C    0.45569993    0.17839993    0.14359887    -0.11880000
opls_700-23    C    0.48070003    0.16330002    0.95089918    0.06360000
opls_700-24    C    0.13460006    0.12250000    0.33499999    0.12600000
opls_145-25    C    0.10780007    0.14030002    0.50529921    -0.13140000
opls_145-26    C    0.12999986    0.10690007    0.11639941    -0.13190000
opls_145-27    C    0.07719999    0.14410007    0.43639949    -0.11960000
opls_145-28    C    0.09969998    0.11039990    0.05060037    -0.12800000
opls_700-29    C    0.07249999    0.13009993    0.20739924    0.06430000
opls_141-30    C    0.04009998    0.13410007    0.12749916    -0.02890000
opls_141-31    C    0.01209991    0.16350008    0.05709989    -0.02900000
opls_700-32    C    0.97950002    0.63580010    0.89849891    0.06130000
opls_145-33    C    0.96330002    0.63460012    0.65299921    -0.11690000
opls_145-34    C    0.99610007    0.60769997    0.10830096    -0.12060000
opls_145-35    C    0.96319984    0.60630018    0.60829986    -0.13200000
opls_145-36    C    0.99589988    0.57960008    0.06539930    -0.11890000
opls_700-37    C    0.97889990    0.57850003    0.82300029    0.09610000
opls_142-38    C    0.97619992    0.54910003    0.83529924    -0.10010000
opls_700-39    C    0.96400003    0.53850006    0.63180014    0.00240000
opls_700-40    C    0.96680007    0.50569998    0.68519864    0.06430000
opls_423-41    C    0.94649999    0.55769998    0.36759915    0.18090000
opls_145-42    C    0.95229997    0.49660006    0.47999903    -0.12300000
opls_145-43    C    0.98399988    0.48300020    0.93400000    -0.12370000
opls_145-44    C    0.95489991    0.46610013    0.52099920    -0.12920000
opls_145-45    C    0.98629993    0.45260004    0.97629874    -0.12060000
opls_700-46    C    0.97189988    0.44360002    0.76999932    0.06140000
opls_700-47    C    0.97409990    0.41100004    0.82359878    0.06790000
opls_145-48    C    0.99109991    0.38730003    0.64009956    -0.13300000
opls_145-49    C    0.95950003    0.40350009    0.06759893    -0.11890000
opls_145-50    C    0.99409995    0.35659999    0.70499975    -0.13190000
opls_145-51    C    0.96209997    0.37310012    0.13090019    -0.13230000
opls_700-52    C    0.97980005    0.34890001    0.95119953    0.06940000
opls_700-53    C    0.98229997    0.31649996    0.02630062    -0.00250000
opls_142-54    C    0.99689989    0.29220004    0.85099922    -0.07180000
opls_423-55    C    0.96749994    0.31209992    0.28460059    0.23250000
opls_700-56    C    0.00149991    0.25920002    0.92820056    0.09450000
opls_145-57    C    0.97600007    0.25410006    0.03210005    -0.11480000
opls_145-58    C    0.03150003    0.23210004    0.87940009    -0.12070000
opls_145-59    C    0.98010005    0.22300005    0.07670002    -0.12390000
opls_145-60    C    0.03590001    0.20100006    0.93409938    -0.11780000
opls_700-61    C    0.01000012    0.19569996    0.02880060    0.06790000
opls_700-62    C    0.04020001    0.10319994    0.11419977    0.07120000
opls_145-63    C    0.02469987    0.10010004    0.87360066    -0.12950000
opls_145-64    C    0.05599996    0.07630002    0.33700086    -0.11960000
opls_145-65    C    0.02219994    0.07260016    0.86089977    -0.12130000
opls_145-66    C    0.05350003    0.04869998    0.32519882    -0.11940000
opls_700-67    C    0.03550009    0.04669999    0.09599981    0.09320000
opls_142-68    C    0.02999990    0.01890013    0.13039887    -0.10010000
opls_700-69    C    0.01560001    0.00949998    0.93419876    0.00120000
opls_700-70    C    0.01339994    0.97930001    0.00320007    0.06800000
opls_423-71    C    0.99980009    0.02870001    0.66449869    0.18090000
opls_145-72    C    0.02779989    0.95720018    0.26169880    -0.12060000
opls_145-73    C    0.99579989    0.97250007    0.80569917    -0.11960000
opls_145-74    C    0.02479997    0.92950008    0.32159902    -0.11850000
opls_145-75    C    0.99319999    0.94469999    0.86440019    -0.13350000
opls_700-76    C    0.00780001    0.92260003    0.12150096    0.06130000
opls_700-77    C    0.00549990    0.89230006    0.17400061    0.06760000
opls_145-78    C    0.98859998    0.88660000    0.40870091    -0.12690000
opls_145-79    C    0.01999996    0.86900012    0.98299923    -0.13200000
opls_145-80    C    0.98639996    0.85850007    0.45179913    -0.13170000
opls_145-81    C    0.01809997    0.84060016    0.02799893    -0.13290000
opls_700-82    C    0.00119999    0.83480003    0.26309896    0.06750000
opls_700-83    C    0.99870001    0.80459996    0.31759949    0.00440000
opls_142-84    C    0.01120008    0.78180005    0.12749916    -0.10100000
opls_423-85    C    0.98119990    0.80270007    0.56599890    0.17210000
opls_700-86    C    0.01349997    0.74989997    0.14010066    0.10900000
opls_145-87    C    0.99689989    0.73810009    0.33549910    -0.13020000
opls_145-88    C    0.03050004    0.73210004    0.91400013    -0.13290000
opls_145-89    C    0.99519987    0.71100016    0.28000035    -0.13170000
opls_145-90    C    0.02899991    0.70490004    0.86080039    -0.12920000
opls_700-91    C    0.01029988    0.69470011    0.04249972    0.06970000
opls_700-92    C    0.00820006    0.66610004    0.97820023    -0.03330000
opls_700-93    C    0.97919984    0.66640012    0.93750041    -0.03000000
opls_700-94    C    0.98040006    0.16439997    0.99859983    0.06790000
opls_145-95    C    0.96149993    0.18070011    0.73539928    -0.12050000
opls_145-96    C    0.96909998    0.14829995    0.20890100    -0.12630000
opls_145-97    C    0.93230002    0.18100008    0.67630073    -0.13200000
opls_145-98    C    0.94009990    0.14880005    0.15190050    -0.12630000
opls_700-99    C    0.92079995    0.16540004    0.88999852    0.09670000
opls_142-100    C    0.88879991    0.16719999    0.88599899    -0.09300000
opls_700-101    C    0.86379996    0.17920002    0.67179988    0.00200000
opls_700-102    C    0.83269992    0.17929996    0.74810017    0.06430000
opls_423-103    C    0.86429989    0.19590008    0.39670011    0.16310000
opls_145-104    C    0.83020008    0.16349994    0.01939916    -0.12630000
opls_145-105    C    0.80409998    0.19780014    0.56180061    -0.13190000
opls_145-106    C    0.80030009    0.16769996    0.11809992    -0.12070000
opls_145-107    C    0.77399999    0.20230007    0.66199871    -0.11890000
opls_700-108    C    0.77119990    0.18759996    0.93890058    0.06470000
opls_700-109    C    0.73939986    0.19200013    0.04079920    0.06400000
opls_145-110    C    0.73699995    0.17720007    0.31839895    -0.12060000
opls_145-111    C    0.71010004    0.21139996    0.86220056    -0.12800000
opls_145-112    C    0.70719986    0.18100008    0.41980066    -0.13280000
opls_145-113    C    0.68049987    0.21480008    0.96149981    -0.12660000
opls_700-114    C    0.67840005    0.19890006    0.23360048    0.06430000
opls_700-115    C    0.64819995    0.19750013    0.31219979    0.00200000
opls_142-116    C    0.62299992    0.20840004    0.10169986    -0.10040000
opls_423-117    C    0.64879991    0.18029999    0.58829999    0.17560000
opls_700-118    C    0.59240005    0.20720002    0.10760088    0.09550000
opls_145-119    C    0.58410000    0.18940005    0.32920056    -0.12910000
opls_145-120    C    0.57169988    0.22250007    0.85159992    -0.12060000
opls_145-121    C    0.55730001    0.18540009    0.27960062    -0.13520000
opls_145-122    C    0.54470001    0.21890011    0.80429900    -0.12100000
opls_700-123    C    0.53779994    0.19929992    0.01789962    0.06530000
opls_700-124    C    0.50919992    0.19490002    0.96909914    -0.03030000
opls_700-125    C    0.51139993    0.16519998    0.97229921    -0.02980000
opls_700-126    C    0.94619986    0.69560006    0.93309894    0.06390000
opls_145-127    C    0.94020007    0.72730003    0.84029920    -0.12050000
opls_145-128    C    0.91929997    0.69189999    0.02240047    -0.12580000
opls_145-129    C    0.90919988    0.75410016    0.84470068    -0.13350000
opls_145-130    C    0.88839993    0.71870014    0.03469942    -0.12050000
opls_700-131    C    0.88279995    0.75030013    0.94470001    0.09550000
opls_142-132    C    0.85029991    0.77870003    0.97049931    -0.10200000
opls_700-133    C    0.83400002    0.80460004    0.74779982    0.00570000
opls_700-134    C    0.80299993    0.83390018    0.79980035    0.06560000
opls_423-135    C    0.84990002    0.80519997    0.48599943    0.16380000
opls_145-136    C    0.78620011    0.83429998    0.05590069    -0.12070000
opls_145-137    C    0.79189991    0.86330012    0.60680031    -0.12960000
opls_145-138    C    0.76080002    0.86300013    0.13679901    -0.13180000
opls_145-139    C    0.76699983    0.89230020    0.69149939    -0.13200000
opls_700-140    C    0.75069985    0.89290011    0.95280067    0.06120000
opls_700-141    C    0.72450002    0.92380008    0.03560047    0.06130000
opls_145-142    C    0.70789984    0.92500013    0.29539999    -0.13230000
opls_145-143    C    0.71530001    0.95360017    0.85249877    -0.13280000
opls_145-144    C    0.68349999    0.95429996    0.38020066    -0.12950000
opls_145-145    C    0.69080001    0.98270015    0.93430035    -0.12050000
opls_700-146    C    0.67360010    0.98369999    0.18949963    0.06390000
opls_700-147    C    0.64389986    0.01430008    0.24169893    0.00560000
opls_142-148    C    0.62989999    0.04049992    0.01829935    -0.10220000
opls_423-149    C    0.62719988    0.01550010    0.50139906    0.16390000
opls_700-150    C    0.60009997    0.07190004    0.03329925    0.09530000
opls_145-151    C    0.57069994    0.07480001    0.13929899    -0.11960000
opls_145-152    C    0.60039996    0.10039996    0.91729958    -0.11960000
opls_145-153    C    0.54250001    0.10500001    0.12169972    -0.11940000
opls_145-154    C    0.57259984    0.13060017    0.90860043    -0.11690000
opls_700-155    C    0.54260002    0.13369995    0.00350042    0.06780000
opls_700-156    C    0.04049999    0.63670001    0.96040000    0.06130000
opls_145-157    C    0.06660004    0.62960010    0.15790090    -0.11970000
opls_145-158    C    0.04699984    0.61660016    0.74369869    -0.12920000
opls_145-159    C    0.09720009    0.60220000    0.14970086    -0.13000000
opls_145-160    C    0.07750000    0.58920014    0.73579901    -0.12390000
opls_700-161    C    0.10290007    0.58060005    0.94739876    0.09540000
opls_142-162    C    0.13309998    0.54940007    0.94269914    -0.09810000
opls_700-163    C    0.15889985    0.53240011    0.15209926    0.00520000
opls_700-164    C    0.18730001    0.50079993    0.10120074    0.06140000
opls_423-165    C    0.16180007    0.54689999    0.38869884    0.19440000
opls_145-166    C    0.18619993    0.48460005    0.87269961    -0.12050000
opls_145-167    C    0.21730001    0.48790009    0.26489886    -0.13190000
opls_145-168    C    0.21409996    0.45840015    0.78630000    -0.13280000
opls_145-169    C    0.24549994    0.46180000    0.17499884    -0.12430000
opls_700-170    C    0.24479995    0.44640020    0.93869961    0.06120000
opls_700-171    C    0.27480000    0.41880010    0.84970064    0.06120000
opls_145-172    C    0.27429984    0.40320018    0.61409929    -0.12690000
opls_145-173    C    0.30539999    0.40720002    0.00200087    -0.13230000
opls_145-174    C    0.30270003    0.37730003    0.52459900    -0.13280000
opls_145-175    C    0.33349995    0.38110015    0.91589941    -0.11250000
opls_700-176    C    0.33269987    0.36470008    0.68799898    0.06260000
opls_700-177    C    0.36140001    0.33320011    0.63930009    0.00530000
opls_142-178    C    0.38719992    0.31700000    0.84980002    -0.09680000
opls_423-179    C    0.35919988    0.31810012    0.40509891    0.17990000
opls_700-180    C    0.41739982    0.28570017    0.86029907    0.09680000
opls_145-181    C    0.42449997    0.26270015    0.66920051    -0.12920000
opls_145-182    C    0.44130012    0.27819991    0.08410059    -0.11940000
opls_145-183    C    0.45389987    0.23350010    0.70299888    -0.13300000
opls_145-184    C    0.47080011    0.24919995    0.11510083    -0.12740000
opls_700-185    C    0.47750003    0.22600004    0.92759986    0.06140000
opls_146-186    H    0.30290001    0.11130007    0.74480072    0.10820000
opls_146-187    H    0.34940004    0.11600005    0.55540047    0.10830000
opls_146-188    H    0.33510002    0.18090011    0.18110083    0.10910000
opls_146-189    H    0.28840013    0.17719992    0.36200069    0.11080000
opls_146-190    H    0.26970006    0.10310000    0.92269928    0.11360000
opls_146-191    H    0.22269999    0.10000007    0.09880014    0.10870000
opls_146-192    H    0.20860003    0.16440014    0.72869879    0.10510000
opls_146-193    H    0.25549989    0.16870008    0.54290055    0.10460000
opls_144-194    H    0.37549989    0.17520003    0.09599981    0.10490000
opls_144-195    H    0.18219987    0.10620008    0.18019978    0.10530000
opls_146-196    H    0.44489987    0.13140018    0.56959870    0.10480000
opls_146-197    H    0.40820005    0.18859998    0.28210060    0.09290000
opls_146-198    H    0.49509991    0.13480013    0.59320058    0.10630000
opls_146-199    H    0.45880005    0.19130005    0.30659912    0.10830000
opls_146-200    H    0.11000008    0.15350002    0.66979901    0.11060000
opls_146-201    H    0.15050006    0.09330007    0.98270109    0.10530000
opls_146-202    H    0.05649985    0.15780008    0.56659960    0.10520000
opls_146-203    H    0.09700002    0.09740011    0.88659969    0.10950000
opls_146-204    H    0.95140000    0.65600009    0.48779933    0.11790000
opls_146-205    H    0.01069988    0.60740013    0.29019905    0.11300000
opls_146-206    H    0.94809998    0.60700001    0.42870078    0.11600000
opls_146-207    H    0.00740009    0.55849994    0.23489906    0.11730000
opls_144-208    H    0.99049993    0.53100006    0.02289958    0.11280000
opls_146-209    H    0.93840011    0.51359994    0.28640049    0.11280000
opls_146-210    H    0.99589990    0.48860002    0.09969899    0.10780000
opls_146-211    H    0.94289981    0.46010016    0.35929974    0.10460000
opls_146-212    H    0.99969981    0.43550020    0.17190036    0.11580000
opls_146-213    H    0.00299998    0.39250001    0.45039896    0.10750000
opls_146-214    H    0.94579995    0.42170004    0.21110063    0.10680000
opls_146-215    H    0.00750001    0.33890007    0.55739913    0.10650000
opls_146-216    H    0.94979996    0.36830011    0.31769887    0.10950000
opls_144-217    H    0.01239994    0.29470000    0.68109973    0.10050000
opls_146-218    H    0.95240001    0.27460009    0.06539930    0.11990000
opls_146-219    H    0.05149998    0.23560016    0.79669967    0.10500000
opls_146-220    H    0.95950005    0.21989993    0.14669956    0.10530000
opls_146-221    H    0.05939997    0.18080001    0.89369991    0.11980000
opls_146-222    H    0.01519991    0.11940017    0.68769862    0.09840000
opls_146-223    H    0.07059994    0.07690000    0.51419933    0.11290000
opls_146-224    H    0.00809987    0.07230012    0.67829939    0.11420000
opls_146-225    H    0.06449989    0.02870002    0.50629965    0.11420000
opls_144-226    H    0.04339997    0.00099997    0.32189937    0.11600000
opls_146-227    H    0.04129990    0.96150008    0.42329887    0.10720000
opls_146-228    H    0.98350000    0.98959997    0.60750039    0.11980000
opls_146-229    H    0.03669986    0.91250012    0.52199963    0.11300000
opls_146-230    H    0.97949994    0.94010014    0.70700062    0.10420000
opls_146-231    H    0.97659994    0.90460001    0.55760010    0.10630000
opls_146-232    H    0.03329983    0.87280011    0.79870054    0.10610000
opls_146-233    H    0.97249998    0.85520014    0.63320031    0.10630000
opls_146-234    H    0.03000007    0.82319996    0.87440013    0.10460000
opls_144-235    H    0.02550008    0.78579994    0.95350075    0.10530000
opls_146-236    H    0.98199992    0.75250010    0.50019987    0.10980000
opls_146-237    H    0.04320001    0.74120004    0.76279972    0.10600000
opls_146-238    H    0.98199987    0.70200012    0.42630018    0.12660000
opls_146-239    H    0.04370006    0.69049998    0.69490043    0.10900000
opls_146-240    H    0.97039985    0.19240014    0.56830012    0.10970000
opls_146-241    H    0.98390002    0.13430003    0.40859932    0.12150000
opls_146-242    H    0.91739992    0.19540008    0.47709931    0.11880000
opls_146-243    H    0.93119986    0.13720009    0.32170061    0.10640000
opls_144-244    H    0.88689990    0.15239999    0.07880027    0.11450000
opls_146-245    H    0.85149995    0.14850011    0.16910003    0.08630000
opls_146-246    H    0.80460004    0.21220009    0.35950071    0.11280000
opls_146-247    H    0.80039997    0.15299998    0.32019885    0.11690000
opls_146-248    H    0.75239989    0.21750002    0.51559950    0.09700000
opls_146-249    H    0.75860001    0.16230010    0.46489975    0.09910000
opls_146-250    H    0.70979987    0.22610008    0.65949872    0.11980000
opls_146-251    H    0.70699998    0.16640012    0.62229932    0.11100000
opls_146-252    H    0.65900001    0.22929994    0.81230027    0.11570000
opls_144-253    H    0.62360005    0.22389992    0.90689991    0.10650000
opls_146-254    H    0.59990010    0.17649999    0.52709898    0.12030000
opls_146-255    H    0.57799993    0.23620015    0.67850036    0.10910000
opls_146-256    H    0.55080006    0.17169994    0.44829871    0.11730000
opls_146-257    H    0.52859994    0.23159994    0.60780074    0.11690000
opls_146-258    H    0.95999996    0.73150018    0.76419988    0.10480000
opls_146-259    H    0.92270007    0.66769995    0.08849986    0.10930000
opls_146-260    H    0.90569997    0.77820018    0.77809997    0.11880000
opls_146-261    H    0.86829997    0.71510013    0.11260084    0.10440000
opls_144-262    H    0.83589997    0.77510021    0.14629983    0.11310000
opls_146-263    H    0.79359988    0.81190002    0.20559934    0.11750000
opls_146-264    H    0.80649995    0.86440006    0.42300073    0.10500000
opls_146-265    H    0.74670007    0.86140003    0.32229910    0.10950000
opls_146-266    H    0.76069994    0.91470018    0.54790052    0.11860000
opls_146-267    H    0.71350007    0.90270000    0.43779966    0.11980000
opls_146-268    H    0.72969987    0.95480010    0.66810070    0.10930000
opls_146-269    H    0.66870005    0.95390006    0.56349892    0.11050000
opls_146-270    H    0.68459998    0.00480004    0.78609903    0.11830000
opls_144-271    H    0.64569990    0.04160006    0.84529917    0.10640000
opls_146-272    H    0.56949992    0.05310013    0.22669903    0.10480000
opls_146-273    H    0.62289996    0.09880010    0.83319898    0.10910000
opls_146-274    H    0.52000011    0.10649992    0.20070097    0.11080000
opls_146-275    H    0.57439998    0.15179998    0.82109880    0.11180000
opls_146-276    H    0.06299987    0.64610012    0.31380092    0.10810000
opls_146-277    H    0.02829995    0.62300012    0.57220027    0.11370000
opls_146-278    H    0.11619994    0.59789996    0.30699885    0.08630000
opls_146-279    H    0.08150001    0.57329995    0.57140081    0.04610000
opls_144-280    H    0.13100007    0.53550002    0.78359905    0.10480000
opls_146-281    H    0.16330005    0.49310007    0.74770043    0.11750000
opls_146-282    H    0.21959991    0.50160009    0.42419993    0.10870000
opls_146-283    H    0.21130008    0.44510000    0.62579974    0.10910000
opls_146-284    H    0.26849993    0.45410002    0.29310097    0.11980000
opls_146-285    H    0.25130011    0.41079997    0.49599936    0.11920000
opls_146-286    H    0.30800002    0.42050011    0.16220078    0.11660000
opls_146-287    H    0.30060003    0.36350007    0.36530014    0.10910000
opls_146-288    H    0.35619989    0.37300003    0.04100017    0.11930000
opls_144-289    H    0.38860009    0.33149999    0.00659890    0.10610000
opls_146-290    H    0.40709985    0.26710010    0.49359876    0.11860000
opls_146-291    H    0.43649997    0.29570005    0.23379925    0.10660000
opls_146-292    H    0.45890008    0.21629993    0.55119997    0.11270000
opls_146-293    H    0.48869999    0.24409993    0.28990091    0.11400000
opls_753-294    N    0.15070001    0.16289996    0.94729938    -0.38610000
opls_753-295    N    0.40699995    0.11920010    0.32609987    -0.36600000
opls_753-296    N    0.93289994    0.56989993    0.13569919    -0.32890000
opls_753-297    N    0.95649997    0.30909999    0.51110085    -0.36210000
opls_753-298    N    0.98739991    0.04189997    0.43020033    -0.32880000
opls_753-299    N    0.96769992    0.80380012    0.78550054    -0.37000000
opls_753-300    N    0.86519989    0.20870011    0.16220078    -0.38130000
opls_753-301    N    0.64889988    0.16710015    0.82319905    -0.36670000
opls_753-302    N    0.86429998    0.80310010    0.27000042    -0.28920000
opls_753-303    N    0.61199991    0.01940002    0.71389986    -0.28920000
opls_753-304    N    0.16229999    0.56020020    0.58449922    -0.28920000
opls_753-305    N    0.35910005    0.30469996    0.20930073    -0.36640000
