#======================================================================
# Crystal Data Generated By AuToFF
#----------------------------------------------------------------------

data_AuToFF_phase_1

_cell_length_a                         12.1845
_cell_length_b                         31.1574
_cell_length_c                         33.7854
_cell_angle_alpha                      89.50
_cell_angle_beta                       80.28
_cell_angle_gamma                      98.77
_symmetry_space_group_name_H-M_alt     'P 1'
_symmetry_space_group_IT_number        1

loop_
_space_group_symop_operation_xyz
   'x, y, z'

loop_
   _atom_site_label
   _atom_site_type_symbol
   _atom_site_fract_x
   _atom_site_fract_y
   _atom_site_fract_z
   _atom_site_charge
opls_701-0    C    0.98664007    0.99954986    0.99995012    0.00130000
opls_701-1    C    0.77219001    0.49170985    0.51886990    0.00130000
opls_700-2    C    0.67428049    0.46527002    0.54884990    0.05380000
opls_145-3    C    0.56027030    0.46264982    0.54497991    -0.07830000
opls_145-4    C    0.47453970    0.43749972    0.57198988    -0.13670000
opls_145-5    C    0.50081010    0.41380984    0.60403003    0.23160000
opls_142-6    C    0.31961006    0.39316972    0.64357005    0.10400000
opls_567-7    C    0.23816041    0.36029993    0.66825995    -0.01180000
opls_716-8    C    0.25568999    0.31858982    0.67932994    -0.09930000
opls_716-9    C    0.16060003    0.29395000    0.70292997    -0.08700000
opls_567-10    C    0.06660027    0.31602992    0.71066994    -0.03950000
opls_543-11    C    0.95910961    0.29712975    0.73415008    0.19310000
opls_700-12    C    0.93245984    0.25508981    0.75253995    -0.15160000
opls_700-13    C    0.81801028    0.24851001    0.77301010    -0.16960000
opls_234-14    C    0.77225035    0.28838997    0.76681013    0.50030000
opls_261-15    C    0.84677983    0.35944980    0.73096010    0.05240000
opls_543-16    C    0.79159973    0.20656998    0.79164006    0.18720000
opls_567-17    C    0.68455967    0.18781002    0.81546997    -0.04030000
opls_716-18    C    0.58979008    0.20949991    0.82270993    -0.08680000
opls_716-19    C    0.49552957    0.18506981    0.84698997    -0.09930000
opls_567-20    C    0.51468973    0.14400995    0.85920991    -0.01280000
opls_142-21    C    0.43493980    0.11148979    0.88491998    0.10380000
opls_261-22    C    0.90410974    0.14428976    0.79484987    0.05240000
opls_234-23    C    0.97831024    0.21526005    0.75881985    0.50170000
opls_145-24    C    0.61499042    0.41636976    0.60826991    -0.13670000
opls_145-25    C    0.69946000    0.44212985    0.58151986    -0.07830000
opls_145-26    C    0.25391965    0.08933995    0.92373011    0.23750000
opls_145-27    C    0.23398994    0.04463990    0.91567012    -0.13670000
opls_145-28    C    0.18362951    0.10506984    0.95608006    -0.13670000
opls_145-29    C    0.14808016    0.01680984    0.94008989    -0.08220000
opls_145-30    C    0.09948004    0.07672975    0.98075013    -0.07610000
opls_700-31    C    0.08029008    0.03198977    0.97357989    0.05380000
opls_700-32    C    0.83484979    0.46083001    0.49076014    0.05380000
opls_145-33    C    0.91268034    0.47814973    0.45642006    -0.08220000
opls_145-34    C    0.97317001    0.45168974    0.43092004    -0.13670000
opls_145-35    C    0.95783034    0.40640993    0.43922013    0.23520000
opls_142-36    C    0.04761965    0.37993974    0.37833012    0.10400000
opls_567-37    C    0.11923977    0.35028998    0.35835007    -0.00740000
opls_716-38    C    0.17089010    0.32038982    0.37729013    -0.09930000
opls_716-39    C    0.23405996    0.29569995    0.35025011    -0.08700000
opls_567-40    C    0.23281006    0.30586992    0.30953007    -0.03950000
opls_543-41    C    0.29059035    0.28425005    0.27634988    0.18720000
opls_700-42    C    0.35510031    0.25072994    0.27944009    -0.16820000
opls_700-43    C    0.39708976    0.23747009    0.24002988    -0.16820000
opls_234-44    C    0.35664978    0.26422996    0.21140989    0.49860000
opls_261-45    C    0.23955992    0.32320983    0.21686015    0.05260000
opls_543-46    C    0.46084983    0.20370994    0.24313002    0.18720000
opls_567-47    C    0.51629969    0.18132979    0.21000992    -0.03950000
opls_716-48    C    0.51272043    0.19072999    0.16931001    -0.08700000
opls_716-49    C    0.57184012    0.16472987    0.14236014    -0.09930000
opls_567-50    C    0.62274987    0.13461002    0.16132995    -0.01010000
opls_142-51    C    0.68962010    0.10340005    0.14148001    0.10400000
opls_261-52    C    0.51201978    0.16481011    0.30263988    0.05240000
opls_234-53    C    0.39529981    0.22389986    0.30807000    0.50030000
opls_145-54    C    0.87971050    0.38881004    0.47326993    -0.13670000
opls_145-55    C    0.81822025    0.41553000    0.49807012    -0.07610000
opls_145-56    C    0.76892972    0.07343009    0.08074986    0.23520000
opls_145-57    C    0.87745009    0.06865010    0.08797991    -0.13670000
opls_145-58    C    0.72991975    0.05277007    0.04763998    -0.13670000
opls_145-59    C    0.94456980    0.04453009    0.06222988    -0.07810000
opls_145-60    C    0.79711995    0.02810999    0.02256004    -0.07610000
opls_700-61    C    0.90678965    0.02426993    0.02865995    0.05380000
opls_700-62    C    0.72717979    0.52289983    0.49177008    0.05380000
opls_145-63    C    0.67250003    0.50594976    0.46026992    -0.07810000
opls_145-64    C    0.62913032    0.53265000    0.43540994    -0.13670000
opls_145-65    C    0.63868987    0.57777992    0.44153989    0.23200000
opls_142-66    C    0.59601036    0.60478993    0.38105014    0.10380000
opls_567-67    C    0.53912032    0.63394978    0.36058991    -0.01180000
opls_716-68    C    0.46922033    0.66280971    0.37873999    -0.09930000
opls_716-69    C    0.42728054    0.68708984    0.35105993    -0.08680000
opls_567-70    C    0.46407987    0.67764990    0.31061002    -0.04120000
opls_543-71    C    0.43339059    0.69906999    0.27680992    0.18720000
opls_700-72    C    0.36365004    0.73156994    0.27891003    -0.19250000
opls_700-73    C    0.35533999    0.74514003    0.23908004    -0.19250000
opls_234-74    C    0.42281043    0.71960989    0.21122990    0.50170000
opls_261-75    C    0.53935986    0.66216980    0.21842990    0.05240000
opls_543-76    C    0.28676051    0.77801994    0.24117985    0.19310000
opls_567-77    C    0.25972041    0.80067002    0.20735000    -0.04070000
opls_716-78    C    0.30017040    0.79246983    0.16687005    -0.08680000
opls_716-79    C    0.26461983    0.81890976    0.13915002    -0.09910000
opls_567-80    C    0.19572010    0.84808979    0.15731993    -0.01180000
opls_142-81    C    0.14691039    0.87997992    0.13683987    0.10380000
opls_261-82    C    0.18058014    0.81482991    0.29954996    0.05260000
opls_234-83    C    0.29655986    0.75720985    0.30675987    0.50040000
opls_145-84    C    0.69300045    0.59498978    0.47293008    -0.13670000
opls_145-85    C    0.73796046    0.56803991    0.49704996    -0.07610000
opls_145-86    C    0.12514003    0.91416991    0.07632998    0.23400000
opls_145-87    C    0.00904043    0.91734971    0.08319013    -0.13670000
opls_145-88    C    0.19662070    0.93910980    0.04438990    -0.13670000
opls_145-89    C    0.96695012    0.94470993    0.05853989    -0.07810000
opls_145-90    C    0.15375020    0.96700990    0.02048998    -0.07610000
opls_700-91    C    0.03796053    0.96994985    0.02654993    0.05380000
opls_700-92    C    0.85255007    0.51734990    0.54446998    0.05380000
opls_145-93    C    0.80712021    0.54023970    0.57767993    -0.07810000
opls_145-94    C    0.87586037    0.56393000    0.60155010    -0.13670000
opls_145-95    C    0.99393001    0.56500997    0.59318000    0.23750000
opls_142-96    C    0.05687014    0.62400974    0.63164007    0.10400000
opls_567-97    C    0.13411015    0.64382968    0.65729004    -0.01180000
opls_716-98    C    0.22315023    0.62606985    0.66935013    -0.09910000
opls_716-99    C    0.28345982    0.65332978    0.69389009    -0.08680000
opls_567-100    C    0.24225992    0.69296977    0.70153000    -0.04120000
opls_543-101    C    0.29093991    0.72632994    0.72581995    0.18720000
opls_700-102    C    0.38545000    0.72487971    0.74465004    -0.16820000
opls_700-103    C    0.40769046    0.76408972    0.76568991    -0.16820000
opls_234-104    C    0.32256052    0.79079979    0.75955004    0.50170000
opls_261-105    C    0.16058000    0.78270968    0.72302000    0.05210000
opls_543-106    C    0.50263993    0.76276970    0.78430004    0.18740000
opls_567-107    C    0.55173006    0.79630967    0.80833007    -0.04070000
opls_716-108    C    0.50877987    0.83550991    0.81658989    -0.08680000
opls_716-109    C    0.56988981    0.86314990    0.84061000    -0.09910000
opls_567-110    C    0.66165035    0.84624975    0.85149008    -0.01180000
opls_142-111    C    0.74026014    0.86684978    0.87629987    0.10380000
opls_261-112    C    0.63314021    0.70646970    0.78706994    0.05230000
opls_234-113    C    0.47073969    0.69820972    0.75070998    0.50030000
opls_145-114    C    0.03957037    0.54093001    0.56101996    -0.13670000
opls_145-115    C    0.97006003    0.51802986    0.53691992    -0.07610000
opls_145-116    C    0.79758025    0.92565962    0.91614009    0.23390000
opls_145-117    C    0.83097988    0.90373965    0.94778990    -0.13670000
opls_145-118    C    0.82701029    0.97132988    0.91204984    -0.13670000
opls_145-119    C    0.89156024    0.92696966    0.97446002    -0.07830000
opls_145-120    C    0.88901988    0.99400978    0.93843991    -0.07810000
opls_700-121    C    0.92124018    0.97244965    0.97063991    0.05380000
opls_750-122    N    0.41974012    0.38516977    0.62990986    -0.23940000
opls_542-123    N    0.86252977    0.31658996    0.74293996    -0.12330000
opls_542-124    N    0.88823025    0.18712991    0.78284988    -0.12270000
opls_750-125    N    0.33531972    0.11942995    0.89942003    -0.24020000
opls_750-126    N    0.02269015    0.37852998    0.41702998    -0.23790000
opls_542-127    N    0.29258043    0.29201005    0.23551985    -0.12330000
opls_542-128    N    0.45914988    0.19604995    0.28396004    -0.12330000
opls_750-129    N    0.70195979    0.10063002    0.10294001    -0.23720000
opls_750-130    N    0.58968997    0.60572998    0.41953996    -0.23870000
opls_542-131    N    0.46771041    0.69218980    0.23618003    -0.12330000
opls_542-132    N    0.25199043    0.78474976    0.28181004    -0.11810000
opls_750-133    N    0.17117045    0.88510974    0.09824007    -0.23900000
opls_750-134    N    0.06721045    0.58634972    0.61710997    -0.24120000
opls_542-135    N    0.25435044    0.76590977    0.73502991    -0.12270000
opls_542-136    N    0.53930980    0.72320980    0.77506995    -0.12270000
opls_750-137    N    0.72937035    0.90463988    0.89040989    -0.23940000
opls_633-138    S    0.10207996    0.36767992    0.68776013    0.08060000
opls_633-139    S    0.65097959    0.13684978    0.83976984    0.08060000
opls_633-140    S    0.15150042    0.34680979    0.30678992    0.09280000
opls_633-141    S    0.59528017    0.13965987    0.21280987    0.07930000
opls_633-142    S    0.55054037    0.63787003    0.30896004    0.08060000
opls_633-143    S    0.17677054    0.84162971    0.20899998    0.08060000
opls_633-144    S    0.12781046    0.69446998    0.67720008    0.08060000
opls_633-145    S    0.66910040    0.79577963    0.83129998    0.09280000
opls_236-146    O    0.67852036    0.29874979    0.77814995    -0.38110000
opls_236-147    O    0.07194983    0.20484988    0.74737005    -0.37880000
opls_236-148    O    0.36980017    0.26529002    0.17436993    -0.38340000
opls_236-149    O    0.38212964    0.22282980    0.34510005    -0.38110000
opls_236-150    O    0.44225022    0.71922989    0.17421007    -0.38070000
opls_236-151    O    0.27717053    0.75761999    0.34378992    -0.37880000
opls_236-152    O    0.30570021    0.82694994    0.77143013    -0.37880000
opls_236-153    O    0.48736991    0.66200989    0.73893986    -0.38080000
opls_146-154    H    0.53617015    0.48128984    0.51939005    0.04920000
opls_146-155    H    0.38283032    0.43602984    0.56821996    0.04920000
opls_144-156    H    0.29485011    0.42582986    0.63637006    0.02900000
opls_570-157    H    0.34101987    0.30782986    0.66911004    0.04920000
opls_570-158    H    0.16456017    0.25957988    0.71382987    0.04920000
MOF2_H_-159    H    0.92066989    0.38727977    0.72685002    0.03910000
opls_570-160    H    0.59491973    0.24356977    0.80923003    0.04920000
opls_570-161    H    0.41385026    0.19914990    0.85489010    0.04920000
opls_144-162    H    0.46049993    0.07901990    0.89223987    0.02900000
MOF2_H_-163    H    0.99045018    0.13829993    0.80027008    0.03910000
opls_146-164    H    0.63849004    0.39728999    0.63369992    0.04920000
opls_146-165    H    0.79044002    0.44432976    0.58640009    0.04920000
opls_146-166    H    0.28814034    0.03128991    0.88918991    0.04920000
opls_146-167    H    0.19526969    0.14123986    0.96228003    0.04920000
opls_146-168    H    0.92728037    0.51454973    0.44898989    0.04920000
opls_146-169    H    0.03505017    0.46658004    0.40335988    0.04920000
opls_144-170    H    0.01413037    0.40411989    0.35975996    0.02900000
opls_570-171    H    0.15919995    0.31805002    0.41147997    0.04920000
opls_570-172    H    0.27998033    0.27036980    0.36204998    0.04920000
MOF2_H_-173    H    0.24835012    0.35825983    0.22677986    0.03910000
opls_570-174    H    0.46487037    0.21732002    0.16114996    0.04920000
opls_570-175    H    0.57494009    0.16929011    0.10864988    0.04920000
opls_144-176    H    0.73054977    0.08167011    0.15999999    0.02900000
MOF2_H_-177    H    0.56280042    0.17517000    0.32730995    0.03910000
opls_146-178    H    0.86634044    0.35242994    0.48074007    0.04920000
opls_146-179    H    0.75349980    0.40002993    0.52466992    0.04920000
opls_146-180    H    0.66295014    0.46964991    0.45467002    0.04920000
opls_146-181    H    0.58592975    0.51805998    0.41011996    0.04920000
opls_144-182    H    0.64596995    0.58120991    0.36304009    0.02900000
opls_570-183    H    0.45165017    0.66472978    0.41284989    0.04920000
opls_570-184    H    0.36940007    0.71155986    0.36219992    0.04920000
MOF2_H_-185    H    0.63314001    0.66807985    0.22005013    0.03910000
opls_570-186    H    0.35603054    0.76640981    0.15946001    0.04920000
opls_570-187    H    0.29210027    0.81535985    0.10552991    0.04920000
opls_144-188    H    0.08739056    0.90034998    0.15492985    0.02900000
MOF2_H_-189    H    0.21790051    0.84447986    0.31516001    0.03910000
opls_146-190    H    0.70048033    0.63120985    0.47878990    0.04920000
opls_146-191    H    0.78413041    0.58323978    0.52140001    0.04920000
opls_146-192    H    0.94965057    0.89755983    0.10888005    0.04920000
opls_146-193    H    0.29028058    0.93658999    0.03789996    0.04920000
opls_146-194    H    0.71212972    0.53962982    0.58551996    0.04920000
opls_146-195    H    0.83683013    0.58245977    0.62785993    0.04920000
opls_144-196    H    0.98714000    0.64175978    0.62437006    0.02900000
opls_570-197    H    0.24023025    0.59257976    0.65912992    0.04920000
opls_570-198    H    0.35778029    0.64249968    0.70551988    0.04920000
MOF2_H_-199    H    0.12906971    0.81203964    0.73837013    0.03910000
opls_570-200    H    0.43155031    0.84208993    0.80403009    0.04920000
opls_570-201    H    0.54309986    0.89574968    0.84935992    0.04920000
opls_144-202    H    0.81124029    0.84959962    0.88322011    0.02900000
MOF2_H_-203    H    0.67570985    0.72253990    0.81192000    0.03910000
opls_146-204    H    0.13408007    0.54003996    0.55449997    0.04920000
opls_146-205    H    0.01014993    0.49963987    0.51069993    0.04920000
opls_146-206    H    0.80000023    0.98985972    0.88703000    0.04920000
opls_146-207    H    0.91026986    0.08449989    0.11486998    0.04920000
opls_146-208    H    0.64273011    0.05613011    0.04115996    0.04920000
opls_146-209    H    0.80855006    0.86688966    0.95169985    0.04920000
opls_146-210    H    0.13117015    0.98088004    0.93323996    0.04920000
opls_146-211    H    0.04471029    0.08968992    0.00730997    0.04920000
opls_146-212    H    0.03217012    0.04080987    0.06805003    0.04920000
opls_146-213    H    0.76349021    0.01060014    0.99655010    0.04920000
opls_146-214    H    0.87318997    0.94708999    0.06399014    0.04920000
opls_146-215    H    0.21281996    0.98797979    0.99548997    0.04920000
opls_146-216    H    0.91801983    0.90907978    0.00000000    0.04920000
opls_146-217    H    0.91486003    0.03071973    0.93431992    0.04920000
