#======================================================================
# Crystal Data Generated By AuToFF
#----------------------------------------------------------------------

data_AuToFF_phase_1

_cell_length_a                         21.7550
_cell_length_b                         21.7550
_cell_length_c                         3.4930
_cell_angle_alpha                      90.00
_cell_angle_beta                       90.00
_cell_angle_gamma                      120.00
_symmetry_space_group_name_H-M_alt     'P 1'
_symmetry_space_group_IT_number        1

loop_
_space_group_symop_operation_xyz
   'x, y, z'

loop_
   _atom_site_label
   _atom_site_type_symbol
   _atom_site_fract_x
   _atom_site_fract_y
   _atom_site_fract_z
   _atom_site_charge
opls_567-0    C    0.04763040    0.97473034    0.50000000    -0.02960000
opls_716-1    C    0.07246999    0.04696986    0.50000000    -0.01170000
opls_567-2    C    0.17305012    0.04132985    0.50000000    -0.02430000
opls_716-3    C    0.14455017    0.08563999    0.50000000    -0.15580000
opls_142-4    C    0.24930013    0.06830011    0.50000000    0.05530000
opls_531-5    C    0.59481003    0.29473981    0.50000000    0.37940000
opls_700-6    C    0.51667997    0.25281019    0.50000000    -0.00610000
opls_523-7    C    0.47641016    0.28700005    0.50000000    -0.10990000
opls_145-8    C    0.40260025    0.24729013    0.50000000    -0.15540000
opls_145-9    C    0.36780011    0.17332028    0.50000000    0.21180000
opls_145-10    C    0.40765002    0.13865007    0.50000000    -0.15920000
opls_523-11    C    0.48159991    0.17824004    0.50000000    -0.11550000
opls_567-12    C    0.02526994    0.07289980    0.50000000    -0.02960000
opls_716-13    C    0.95302994    0.02550002    0.50000000    -0.01170000
opls_567-14    C    0.95867007    0.13172027    0.50000000    -0.02430000
opls_716-15    C    0.91436016    0.05891017    0.50000000    -0.15580000
opls_142-16    C    0.93170022    0.18100006    0.50000000    0.05530000
opls_531-17    C    0.70525993    0.30006985    0.50000000    0.37940000
opls_700-18    C    0.74718986    0.26386994    0.50000000    -0.00610000
opls_523-19    C    0.71300020    0.18941019    0.50000000    -0.10990000
opls_145-20    C    0.75270995    0.15531003    0.50000000    -0.15540000
opls_145-21    C    0.82668021    0.19448015    0.50000000    0.21180000
opls_145-22    C    0.86134986    0.26899988    0.50000000    -0.15920000
opls_523-23    C    0.82176004    0.30336012    0.50000000    -0.11550000
opls_567-24    C    0.92710039    0.95237039    0.50000000    -0.02960000
opls_716-25    C    0.97450007    0.92753012    0.50000000    -0.01170000
opls_567-26    C    0.86827981    0.82694988    0.50000000    -0.02430000
opls_716-27    C    0.94109039    0.85545037    0.50000000    -0.15580000
opls_142-28    C    0.81900037    0.75070036    0.50000000    0.05530000
opls_531-29    C    0.69992977    0.40518981    0.50000000    0.37940000
opls_700-30    C    0.73612971    0.48331987    0.50000000    -0.00610000
opls_523-31    C    0.81059036    0.52359029    0.50000000    -0.10990000
opls_145-32    C    0.84468981    0.59739984    0.50000000    -0.15540000
opls_145-33    C    0.80551995    0.63220009    0.50000000    0.21180000
opls_145-34    C    0.73100012    0.59235005    0.50000000    -0.15920000
opls_523-35    C    0.69664005    0.51839984    0.50000000    -0.11550000
opls_633-36    S    0.11230993    0.95216020    0.50000000    0.08200000
opls_633-37    S    0.04784019    0.16015017    0.50000000    0.08200000
opls_633-38    S    0.83985014    0.88769016    0.50000000    0.08200000
opls_520-39    N    0.63356982    0.26184981    0.50000000    -0.41240000
opls_750-40    N    0.29208977    0.13637995    0.50000000    -0.28210000
opls_520-41    N    0.73815015    0.37172021    0.50000000    -0.41240000
opls_750-42    N    0.86362023    0.15571024    0.50000000    -0.28210000
opls_520-43    N    0.62828003    0.36642998    0.50000000    -0.41240000
opls_750-44    N    0.84429027    0.70791035    0.50000000    -0.28210000
opls_570-45    H    0.17512013    0.14305019    0.50000000    0.12460000
opls_144-46    H    0.26782980    0.03062996    0.50000000    0.12860000
opls_526-47    H    0.50203004    0.34438000    0.50000000    0.11980000
opls_146-48    H    0.37178001    0.27386019    0.50000000    0.12740000
opls_146-49    H    0.38263010    0.08157001    0.50000000    0.11070000
opls_526-50    H    0.51145990    0.15062010    0.50000000    0.12240000
opls_570-51    H    0.85695017    0.03206995    0.50000000    0.12460000
opls_144-52    H    0.96936999    0.23720010    0.50000000    0.12860000
opls_526-53    H    0.65562033    0.15765022    0.50000000    0.11980000
opls_146-54    H    0.72613996    0.09792000    0.50000000    0.12740000
opls_146-55    H    0.91842993    0.30106028    0.50000000    0.11070000
opls_526-56    H    0.84937971    0.36083986    0.50000000    0.12240000
opls_570-57    H    0.96792970    0.82487986    0.50000000    0.12460000
opls_144-58    H    0.76279975    0.73216995    0.50000000    0.12860000
opls_526-59    H    0.84235036    0.49797032    0.50000000    0.11980000
opls_146-60    H    0.90208029    0.62822034    0.50000000    0.12740000
opls_146-61    H    0.69894024    0.61737024    0.50000000    0.11070000
opls_526-62    H    0.63915993    0.48854004    0.50000000    0.12240000
