#======================================================================
# Crystal Data Generated By AuToFF
#----------------------------------------------------------------------

data_AuToFF_phase_1

_cell_length_a                         29.6412
_cell_length_b                         29.6412
_cell_length_c                         3.5308
_cell_angle_alpha                      90.00
_cell_angle_beta                       90.00
_cell_angle_gamma                      120.00
_symmetry_space_group_name_H-M_alt     'P 1'
_symmetry_space_group_IT_number        1

loop_
_space_group_symop_operation_xyz
   'x, y, z'

loop_
   _atom_site_label
   _atom_site_type_symbol
   _atom_site_fract_x
   _atom_site_fract_y
   _atom_site_fract_z
   _atom_site_charge
opls_142-0    C    0.49901984    0.05847987    0.00000000    0.00150000
opls_700-1    C    0.46579019    0.88485015    0.00000000    0.06070000
opls_145-2    C    0.41169997    0.86326000    0.00000000    -0.12380000
opls_523-3    C    0.37902013    0.80947003    0.00000000    -0.12200000
opls_700-4    C    0.39976021    0.77615024    0.00000000    -0.00700000
opls_523-5    C    0.45395995    0.79797024    0.00000000    -0.12220000
opls_145-6    C    0.48659998    0.85176020    0.00000000    -0.12250000
opls_531-7    C    0.36509017    0.71902020    0.00000000    0.38820000
opls_142-8    C    0.94152025    0.44054019    0.00000000    0.00150000
opls_700-9    C    0.11514989    0.58094011    0.00000000    0.06080000
opls_145-10    C    0.13674005    0.54843995    0.00000000    -0.12380000
opls_523-11    C    0.19053025    0.56955017    0.00000000    -0.12200000
opls_700-12    C    0.22385011    0.62361010    0.00000000    -0.00700000
opls_523-13    C    0.20203007    0.65598988    0.00000000    -0.12220000
opls_145-14    C    0.14823990    0.63483993    0.00000000    -0.12250000
opls_531-15    C    0.28098009    0.64607014    0.00000000    0.38820000
opls_142-16    C    0.55945992    0.50097994    0.00000000    0.00150000
opls_700-17    C    0.41906011    0.53421013    0.00000000    0.06080000
opls_145-18    C    0.45155998    0.58830005    0.00000000    -0.12380000
opls_523-19    C    0.43045015    0.62098019    0.00000000    -0.12200000
opls_700-20    C    0.37638988    0.60024005    0.00000000    -0.00700000
opls_523-21    C    0.34400998    0.54603988    0.00000000    -0.12220000
opls_145-22    C    0.36515978    0.51339987    0.00000000    -0.12250000
opls_531-23    C    0.35392993    0.63491005    0.00000000    0.38820000
opls_142-24    C    0.50098016    0.94152013    0.00000000    0.00150000
opls_700-25    C    0.53420981    0.11514985    0.00000000    0.06080000
opls_145-26    C    0.58830003    0.13674000    0.00000000    -0.12380000
opls_523-27    C    0.62097987    0.19052997    0.00000000    -0.12200000
opls_700-28    C    0.60023999    0.22385015    0.00000000    -0.00700000
opls_523-29    C    0.54604024    0.20203015    0.00000000    -0.12220000
opls_145-30    C    0.51340022    0.14824019    0.00000000    -0.12250000
opls_531-31    C    0.63491003    0.28098019    0.00000000    0.38820000
opls_142-32    C    0.05847995    0.55946020    0.00000000    0.00150000
opls_700-33    C    0.88485011    0.41905989    0.00000000    0.06080000
opls_145-34    C    0.86325995    0.45156005    0.00000000    -0.12380000
opls_523-35    C    0.80946994    0.43045022    0.00000000    -0.12200000
opls_700-36    C    0.77614989    0.37638990    0.00000000    -0.00700000
opls_523-37    C    0.79796993    0.34401012    0.00000000    -0.12220000
opls_145-38    C    0.85176010    0.36516007    0.00000000    -0.12250000
opls_531-39    C    0.71901991    0.35392986    0.00000000    0.38820000
opls_142-40    C    0.44054008    0.49902006    0.00000000    0.00150000
opls_700-41    C    0.58093989    0.46578987    0.00000000    0.06080000
opls_145-42    C    0.54844002    0.41169995    0.00000000    -0.12380000
opls_523-43    C    0.56955005    0.37902020    0.00000000    -0.12200000
opls_700-44    C    0.62361012    0.39975995    0.00000000    -0.00700000
opls_523-45    C    0.65599002    0.45396012    0.00000000    -0.12210000
opls_145-46    C    0.63484022    0.48660013    0.00000000    -0.12240000
opls_531-47    C    0.64607007    0.36508995    0.00000000    0.38820000
opls_750-48    N    0.51691998    0.02681999    0.00000000    -0.11690000
opls_520-49    N    0.31290014    0.69819007    0.00000000    -0.39330000
opls_750-50    N    0.97318007    0.49009993    0.00000000    -0.11690000
opls_520-51    N    0.30181013    0.61471023    0.00000000    -0.39310000
opls_750-52    N    0.50989996    0.48308007    0.00000000    -0.11690000
opls_520-53    N    0.38528992    0.68710009    0.00000000    -0.39330000
opls_750-54    N    0.48308002    0.97318001    0.00000000    -0.11680000
opls_520-55    N    0.68709986    0.30180993    0.00000000    -0.39330000
opls_750-56    N    0.02681993    0.50990007    0.00000000    -0.11680000
opls_520-57    N    0.69819007    0.38529016    0.00000000    -0.39330000
opls_750-58    N    0.49010004    0.51691993    0.00000000    -0.11690000
opls_520-59    N    0.61471008    0.31289991    0.00000000    -0.39320000
opls_144-60    H    0.45749003    0.04313006    0.00000000    0.10740000
opls_146-61    H    0.39481002    0.88810999    0.00000000    0.10700000
opls_526-62    H    0.33747005    0.79385026    0.00000000    0.10910000
opls_526-63    H    0.47107026    0.77333022    0.00000000    0.10910000
opls_146-64    H    0.52819013    0.86758021    0.00000000    0.12450000
opls_144-65    H    0.95686989    0.41435986    0.00000000    0.10740000
opls_146-66    H    0.11189025    0.50670023    0.00000000    0.10700000
opls_526-67    H    0.20615001    0.54361993    0.00000000    0.10910000
opls_526-68    H    0.22667022    0.69774013    0.00000000    0.10910000
opls_146-69    H    0.13241999    0.66061006    0.00000000    0.12450000
opls_144-70    H    0.58564008    0.54251008    0.00000000    0.10740000
opls_146-71    H    0.49330026    0.60519018    0.00000000    0.10700000
opls_526-72    H    0.45638014    0.66253020    0.00000000    0.10910000
opls_526-73    H    0.30226005    0.52893004    0.00000000    0.10910000
opls_146-74    H    0.33939008    0.47181012    0.00000000    0.12450000
opls_144-75    H    0.54250997    0.95686994    0.00000000    0.10740000
opls_146-76    H    0.60518998    0.11189001    0.00000000    0.10700000
opls_526-77    H    0.66253015    0.20615013    0.00000000    0.10910000
opls_526-78    H    0.52892993    0.22667017    0.00000000    0.10910000
opls_146-79    H    0.47181007    0.13242018    0.00000000    0.12450000
opls_144-80    H    0.04313011    0.58564014    0.00000000    0.10740000
opls_146-81    H    0.88810994    0.49330016    0.00000000    0.10700000
opls_526-82    H    0.79384999    0.45638007    0.00000000    0.10910000
opls_526-83    H    0.77332978    0.30225987    0.00000000    0.10910000
opls_146-84    H    0.86758001    0.33938994    0.00000000    0.12450000
opls_144-85    H    0.41435992    0.45748992    0.00000000    0.10740000
opls_146-86    H    0.50669994    0.39481021    0.00000000    0.10700000
opls_526-87    H    0.54362005    0.33747019    0.00000000    0.10910000
opls_526-88    H    0.69773995    0.47106996    0.00000000    0.10910000
opls_146-89    H    0.66060992    0.52818988    0.00000000    0.12450000
