#======================================================================
# Crystal Data Generated By AuToFF
#----------------------------------------------------------------------

data_AuToFF_phase_1

_cell_length_a                         54.6266
_cell_length_b                         54.6266
_cell_length_c                         21.5251
_cell_angle_alpha                      90.00
_cell_angle_beta                       90.00
_cell_angle_gamma                      120.00
_symmetry_space_group_name_H-M_alt     'P 1'
_symmetry_space_group_IT_number        1

loop_
_space_group_symop_operation_xyz
   'x, y, z'

loop_
   _atom_site_label
   _atom_site_type_symbol
   _atom_site_fract_x
   _atom_site_fract_y
   _atom_site_fract_z
   _atom_site_charge
opls_700-0    C    0.39914007    0.62634010    0.56865984    0.06730000
opls_145-1    C    0.42824994    0.64369001    0.57836990    -0.12020000
opls_145-2    C    0.44310991    0.63401998    0.61395023    -0.12770000
opls_700-3    C    0.42902001    0.60694001    0.64064000    0.06660000
opls_145-4    C    0.39982008    0.58953006    0.63041984    -0.13280000
opls_145-5    C    0.38500995    0.59921996    0.59472987    -0.12020000
opls_142-6    C    0.44493994    0.59765997    0.68023981    0.06870000
opls_145-7    C    0.42934003    0.53327998    0.76452978    -0.17330000
opls_145-8    C    0.44473990    0.56207996    0.74959001    0.18680000
opls_145-9    C    0.47101007    0.57928000    0.77880010    -0.17750000
opls_145-10    C    0.48147999    0.56764012    0.82186006    -0.12040000
opls_700-11    C    0.46591008    0.53882006    0.83656986    0.06970000
opls_145-12    C    0.43982996    0.52165996    0.80756001    -0.12020000
opls_141-13    C    0.47636997    0.52688001    0.88468021    -0.06660000
opls_543-14    C    0.48890992    0.51240995    0.86781989    0.17610000
opls_700-15    C    0.38323001    0.63684001    0.53298010    0.02930000
opls_145-16    C    0.36725001    0.64630014    0.56570980    -0.18260000
opls_700-17    C    0.35160000    0.65580001    0.53292017    0.05950000
opls_716-18    C    0.45906009    0.54606005    0.96844986    -0.20260000
opls_543-19    C    0.47246994    0.53145999    0.04981022    0.19380000
opls_716-20    C    0.49347990    0.50733998    0.19687017    -0.17130000
opls_700-21    C    0.37366008    0.77280005    0.56865984    0.06730000
opls_145-22    C    0.35630998    0.78456000    0.57836990    -0.12020000
opls_145-23    C    0.36598013    0.80909009    0.61395023    -0.12770000
opls_700-24    C    0.39305996    0.82208006    0.64064000    0.06660000
opls_145-25    C    0.41047011    0.81029009    0.63041984    -0.13280000
opls_145-26    C    0.40078000    0.78579002    0.59472987    -0.12020000
opls_142-27    C    0.40233995    0.84728002    0.68023981    0.06870000
opls_145-28    C    0.46672004    0.89606012    0.76452978    -0.17330000
opls_145-29    C    0.43791997    0.88266006    0.74959001    0.18680000
opls_145-30    C    0.42071992    0.89172999    0.77880010    -0.17770000
opls_145-31    C    0.43235998    0.91383998    0.82186006    -0.12040000
opls_700-32    C    0.46118012    0.92709016    0.83656986    0.06970000
opls_145-33    C    0.47834014    0.91817011    0.80756001    -0.12020000
opls_141-34    C    0.47312005    0.94949017    0.88468021    -0.06650000
opls_543-35    C    0.48759005    0.97649997    0.86781989    0.17610000
opls_700-36    C    0.36316004    0.74639015    0.53298010    0.02930000
opls_145-37    C    0.35369994    0.72095006    0.56570980    -0.18260000
opls_700-38    C    0.34419997    0.69579999    0.53292017    0.05950000
opls_716-39    C    0.45394016    0.91300016    0.96844986    -0.20260000
opls_543-40    C    0.46854002    0.94101000    0.04981022    0.19380000
opls_716-41    C    0.49265993    0.98613998    0.19687017    -0.17120000
opls_700-42    C    0.22719996    0.60086007    0.56865984    0.06730000
opls_145-43    C    0.21544008    0.57174999    0.57836990    -0.12020000
opls_145-44    C    0.19091006    0.55689014    0.61395023    -0.12770000
opls_700-45    C    0.17792013    0.57098014    0.64064000    0.06660000
opls_145-46    C    0.18971010    0.60018005    0.63041984    -0.13280000
opls_145-47    C    0.21421005    0.61499002    0.59472987    -0.12020000
opls_142-48    C    0.15271993    0.55506001    0.68023981    0.06870000
opls_145-49    C    0.10394004    0.57066011    0.76452978    -0.17330000
opls_145-50    C    0.11733995    0.55525997    0.74959001    0.18680000
opls_145-51    C    0.10827002    0.52899001    0.77880010    -0.17770000
opls_145-52    C    0.08616014    0.51852012    0.82186006    -0.12040000
opls_700-53    C    0.07291009    0.53408999    0.83656986    0.06970000
opls_145-54    C    0.08183001    0.56017014    0.80756001    -0.12020000
opls_141-55    C    0.05051008    0.52363003    0.88468021    -0.06660000
opls_543-56    C    0.02350003    0.51109009    0.86781989    0.17620000
opls_700-57    C    0.25361006    0.61677005    0.53298010    0.02930000
opls_145-58    C    0.27904996    0.63275001    0.56570980    -0.18260000
opls_700-59    C    0.30420003    0.64840000    0.53292017    0.05950000
opls_716-60    C    0.08700004    0.54093999    0.96844986    -0.20260000
opls_543-61    C    0.05899004    0.52753000    0.04981022    0.19380000
opls_716-62    C    0.01385998    0.50652004    0.19687017    -0.17130000
opls_700-63    C    0.60086003    0.37366011    0.56865984    0.06730000
opls_145-64    C    0.57175006    0.35630999    0.57836990    -0.12020000
opls_145-65    C    0.55689009    0.36598002    0.61395023    -0.12770000
opls_700-66    C    0.57097999    0.39305999    0.64064000    0.06660000
opls_145-67    C    0.60017992    0.41046994    0.63041984    -0.13280000
opls_145-68    C    0.61499005    0.40078004    0.59472987    -0.12020000
opls_142-69    C    0.55506006    0.40234003    0.68023981    0.06880000
opls_145-70    C    0.57065997    0.46672002    0.76452978    -0.17330000
opls_145-71    C    0.55526010    0.43792004    0.74959001    0.18680000
opls_145-72    C    0.52898993    0.42072000    0.77880010    -0.17770000
opls_145-73    C    0.51852012    0.43236009    0.82186006    -0.12040000
opls_700-74    C    0.53408992    0.46117994    0.83656986    0.06970000
opls_145-75    C    0.56017004    0.47834004    0.80756001    -0.12020000
opls_141-76    C    0.52363003    0.47311999    0.88468021    -0.06660000
opls_543-77    C    0.51109008    0.48759005    0.86781989    0.17610000
opls_700-78    C    0.61676999    0.36315999    0.53298010    0.02930000
opls_145-79    C    0.63275009    0.35370007    0.56570980    -0.18260000
opls_700-80    C    0.64840000    0.34419999    0.53292017    0.05950000
opls_716-81    C    0.54093991    0.45393995    0.96844986    -0.20260000
opls_543-82    C    0.52753006    0.46854001    0.04981022    0.19380000
opls_716-83    C    0.50652010    0.49266002    0.19687017    -0.17130000
opls_700-84    C    0.62633992    0.22719995    0.56865984    0.06730000
opls_145-85    C    0.64369002    0.21544000    0.57836990    -0.12020000
opls_145-86    C    0.63401987    0.19090991    0.61395023    -0.12770000
opls_700-87    C    0.60694004    0.17791994    0.64064000    0.06660000
opls_145-88    C    0.58953000    0.18971012    0.63041984    -0.13280000
opls_145-89    C    0.59922000    0.21420998    0.59472987    -0.12020000
opls_142-90    C    0.59766005    0.15271998    0.68023981    0.06870000
opls_145-91    C    0.53328007    0.10394009    0.76452978    -0.17330000
opls_145-92    C    0.56208003    0.11733994    0.74959001    0.18680000
opls_145-93    C    0.57928008    0.10827001    0.77880010    -0.17770000
opls_145-94    C    0.56764002    0.08616002    0.82186006    -0.12040000
opls_700-95    C    0.53881999    0.07291005    0.83656986    0.06970000
opls_145-96    C    0.52165996    0.08183010    0.80756001    -0.12020000
opls_141-97    C    0.52688005    0.05051004    0.88468021    -0.06660000
opls_543-98    C    0.51240995    0.02350003    0.86781989    0.17610000
opls_700-99    C    0.63684007    0.25361006    0.53298010    0.02930000
opls_145-100    C    0.64630006    0.27904994    0.56570980    -0.18260000
opls_700-101    C    0.65580003    0.30420001    0.53292017    0.05950000
opls_716-102    C    0.54605995    0.08700005    0.96844986    -0.20260000
opls_543-103    C    0.53145998    0.05899000    0.04981022    0.19380000
opls_716-104    C    0.50734007    0.01386002    0.19687017    -0.17130000
opls_700-105    C    0.77280004    0.39913993    0.56865984    0.06730000
opls_145-106    C    0.78455992    0.42825001    0.57836990    -0.12020000
opls_145-107    C    0.80909004    0.44311007    0.61395023    -0.12880000
opls_700-108    C    0.82207997    0.42902007    0.64064000    0.06660000
opls_145-109    C    0.81028990    0.39981995    0.63041984    -0.13280000
opls_145-110    C    0.78578995    0.38500998    0.59472987    -0.12020000
opls_142-111    C    0.84728007    0.44493999    0.68023981    0.06870000
opls_145-112    C    0.89606007    0.42934010    0.76452978    -0.17330000
opls_145-113    C    0.88266005    0.44474003    0.74959001    0.18680000
opls_145-114    C    0.89172998    0.47100999    0.77880010    -0.17770000
opls_145-115    C    0.91383997    0.48148010    0.82186006    -0.12040000
opls_700-116    C    0.92708991    0.46591001    0.83656986    0.06970000
opls_145-117    C    0.91817010    0.43983008    0.80756001    -0.12020000
opls_141-118    C    0.94948992    0.47636997    0.88468021    -0.06660000
opls_543-119    C    0.97650007    0.48891013    0.86781989    0.17610000
opls_700-120    C    0.74638994    0.38322995    0.53298010    0.02930000
opls_145-121    C    0.72095004    0.36724999    0.56570980    -0.18260000
opls_700-122    C    0.69579997    0.35160000    0.53292017    0.05950000
opls_716-123    C    0.91299996    0.45906001    0.96844986    -0.20260000
opls_543-124    C    0.94100996    0.47247000    0.04981022    0.19380000
opls_716-125    C    0.98614002    0.49347996    0.19687017    -0.17120000
opls_700-126    C    0.60086003    0.37366011    0.43134016    0.06730000
opls_145-127    C    0.57175006    0.35630999    0.42163010    -0.12020000
opls_145-128    C    0.55689009    0.36598002    0.38604977    -0.12770000
opls_700-129    C    0.57097999    0.39305999    0.35936000    0.06660000
opls_145-130    C    0.60017992    0.41046994    0.36958016    -0.13280000
opls_145-131    C    0.61499005    0.40078004    0.40527013    -0.12020000
opls_142-132    C    0.55506006    0.40234003    0.31976019    0.06870000
opls_145-133    C    0.57065997    0.46672002    0.23547022    -0.17330000
opls_145-134    C    0.55526010    0.43792004    0.25040999    0.18680000
opls_145-135    C    0.52898993    0.42072000    0.22119990    -0.17770000
opls_145-136    C    0.51852012    0.43236009    0.17813994    -0.12040000
opls_700-137    C    0.53408992    0.46117994    0.16343014    0.06970000
opls_145-138    C    0.56017004    0.47834004    0.19243999    -0.12020000
opls_141-139    C    0.52363003    0.47311999    0.11531979    -0.06660000
opls_543-140    C    0.51109008    0.48759005    0.13218011    0.17610000
opls_700-141    C    0.61676999    0.36315999    0.46701990    0.02930000
opls_145-142    C    0.63275009    0.35370007    0.43429020    -0.18260000
opls_700-143    C    0.64840000    0.34419999    0.46707983    0.05950000
opls_716-144    C    0.54093991    0.45393995    0.03155014    -0.20260000
opls_543-145    C    0.52753006    0.46854001    0.95018978    0.19380000
opls_716-146    C    0.50652010    0.49266002    0.80312983    -0.17130000
opls_700-147    C    0.62633992    0.22719995    0.43134016    0.06730000
opls_145-148    C    0.64369002    0.21544000    0.42163010    -0.12020000
opls_145-149    C    0.63401987    0.19090991    0.38604977    -0.12770000
opls_700-150    C    0.60694004    0.17791994    0.35936000    0.06660000
opls_145-151    C    0.58953000    0.18971012    0.36958016    -0.13280000
opls_145-152    C    0.59922000    0.21420998    0.40527013    -0.12020000
opls_142-153    C    0.59766005    0.15271998    0.31976019    0.06870000
opls_145-154    C    0.53328007    0.10394009    0.23547022    -0.17330000
opls_145-155    C    0.56208003    0.11733994    0.25040999    0.18680000
opls_145-156    C    0.57928008    0.10827001    0.22119990    -0.17770000
opls_145-157    C    0.56764002    0.08616002    0.17813994    -0.12040000
opls_700-158    C    0.53881999    0.07291005    0.16343014    0.06970000
opls_145-159    C    0.52165996    0.08183010    0.19243999    -0.12020000
opls_141-160    C    0.52688005    0.05051004    0.11531979    -0.06660000
opls_543-161    C    0.51240995    0.02350003    0.13218011    0.17610000
opls_700-162    C    0.63684007    0.25361006    0.46701990    0.02930000
opls_145-163    C    0.64630006    0.27904994    0.43429020    -0.18260000
opls_700-164    C    0.65580003    0.30420001    0.46707983    0.05950000
opls_716-165    C    0.54605995    0.08700005    0.03155014    -0.20260000
opls_543-166    C    0.53145998    0.05899000    0.95018978    0.19380000
opls_716-167    C    0.50734007    0.01386002    0.80312983    -0.17130000
opls_700-168    C    0.77280004    0.39913993    0.43134016    0.06730000
opls_145-169    C    0.78455992    0.42825001    0.42163010    -0.12020000
opls_145-170    C    0.80909004    0.44311007    0.38604977    -0.12880000
opls_700-171    C    0.82207997    0.42902007    0.35936000    0.06660000
opls_145-172    C    0.81028990    0.39981995    0.36958016    -0.13280000
opls_145-173    C    0.78578995    0.38500998    0.40527013    -0.12020000
opls_142-174    C    0.84728007    0.44493999    0.31976019    0.06870000
opls_145-175    C    0.89606007    0.42934010    0.23547022    -0.17330000
opls_145-176    C    0.88266005    0.44474003    0.25040999    0.18680000
opls_145-177    C    0.89172998    0.47100999    0.22119990    -0.17770000
opls_145-178    C    0.91383997    0.48148010    0.17813994    -0.12040000
opls_700-179    C    0.92708991    0.46591001    0.16343014    0.06970000
opls_145-180    C    0.91817010    0.43983008    0.19243999    -0.12020000
opls_141-181    C    0.94948992    0.47636997    0.11531979    -0.06660000
opls_543-182    C    0.97650007    0.48891013    0.13218011    0.17620000
opls_700-183    C    0.74638994    0.38322995    0.46701990    0.02930000
opls_145-184    C    0.72095004    0.36724999    0.43429020    -0.18260000
opls_700-185    C    0.69579997    0.35160000    0.46707983    0.05950000
opls_716-186    C    0.91299996    0.45906001    0.03155014    -0.20260000
opls_543-187    C    0.94100996    0.47247000    0.95018978    0.19380000
opls_716-188    C    0.98614002    0.49347996    0.80312983    -0.17130000
opls_700-189    C    0.39914007    0.62634010    0.43134016    0.06730000
opls_145-190    C    0.42824994    0.64369001    0.42163010    -0.12020000
opls_145-191    C    0.44310991    0.63401998    0.38604977    -0.12770000
opls_700-192    C    0.42902001    0.60694001    0.35936000    0.06660000
opls_145-193    C    0.39982008    0.58953006    0.36958016    -0.13280000
opls_145-194    C    0.38500995    0.59921996    0.40527013    -0.12020000
opls_142-195    C    0.44493994    0.59765997    0.31976019    0.06870000
opls_145-196    C    0.42934003    0.53327998    0.23547022    -0.17330000
opls_145-197    C    0.44473990    0.56207996    0.25040999    0.18690000
opls_145-198    C    0.47101007    0.57928000    0.22119990    -0.17770000
opls_145-199    C    0.48147999    0.56764012    0.17813994    -0.12040000
opls_700-200    C    0.46591008    0.53882006    0.16343014    0.06970000
opls_145-201    C    0.43982996    0.52165996    0.19243999    -0.12010000
opls_141-202    C    0.47636997    0.52688001    0.11531979    -0.06660000
opls_543-203    C    0.48890992    0.51240995    0.13218011    0.17610000
opls_700-204    C    0.38323001    0.63684001    0.46701990    0.02930000
opls_145-205    C    0.36725001    0.64630014    0.43429020    -0.18260000
opls_700-206    C    0.35160000    0.65580001    0.46707983    0.05950000
opls_716-207    C    0.45906009    0.54606005    0.03155014    -0.20260000
opls_543-208    C    0.47246994    0.53145999    0.95018978    0.19390000
opls_716-209    C    0.49347990    0.50733998    0.80312983    -0.17130000
opls_700-210    C    0.37366008    0.77280005    0.43134016    0.06730000
opls_145-211    C    0.35630998    0.78456000    0.42163010    -0.12020000
opls_145-212    C    0.36598013    0.80909009    0.38604977    -0.12770000
opls_700-213    C    0.39305996    0.82208006    0.35936000    0.06660000
opls_145-214    C    0.41047011    0.81029009    0.36958016    -0.13280000
opls_145-215    C    0.40078000    0.78579002    0.40527013    -0.12020000
opls_142-216    C    0.40233995    0.84728002    0.31976019    0.06870000
opls_145-217    C    0.46672004    0.89606012    0.23547022    -0.17320000
opls_145-218    C    0.43791997    0.88266006    0.25040999    0.18680000
opls_145-219    C    0.42071992    0.89172999    0.22119990    -0.17760000
opls_145-220    C    0.43235998    0.91383998    0.17813994    -0.12040000
opls_700-221    C    0.46118012    0.92709016    0.16343014    0.06970000
opls_145-222    C    0.47834014    0.91817011    0.19243999    -0.12020000
opls_141-223    C    0.47312005    0.94949017    0.11531979    -0.06660000
opls_543-224    C    0.48759005    0.97649997    0.13218011    0.17610000
opls_700-225    C    0.36316004    0.74639015    0.46701990    0.02930000
opls_145-226    C    0.35369994    0.72095006    0.43429020    -0.18260000
opls_700-227    C    0.34419997    0.69579999    0.46707983    0.05950000
opls_716-228    C    0.45394016    0.91300016    0.03155014    -0.20260000
opls_543-229    C    0.46854002    0.94101000    0.95018978    0.19380000
opls_716-230    C    0.49265993    0.98613998    0.80312983    -0.17130000
opls_700-231    C    0.22719996    0.60086007    0.43134016    0.06730000
opls_145-232    C    0.21544008    0.57174999    0.42163010    -0.12020000
opls_145-233    C    0.19091006    0.55689014    0.38604977    -0.12770000
opls_700-234    C    0.17792013    0.57098014    0.35936000    0.06660000
opls_145-235    C    0.18971010    0.60018005    0.36958016    -0.13280000
opls_145-236    C    0.21421005    0.61499002    0.40527013    -0.12020000
opls_142-237    C    0.15271993    0.55506001    0.31976019    0.06870000
opls_145-238    C    0.10394004    0.57066011    0.23547022    -0.17330000
opls_145-239    C    0.11733995    0.55525997    0.25040999    0.18680000
opls_145-240    C    0.10827002    0.52899001    0.22119990    -0.17770000
opls_145-241    C    0.08616014    0.51852012    0.17813994    -0.12040000
opls_700-242    C    0.07291009    0.53408999    0.16343014    0.06970000
opls_145-243    C    0.08183001    0.56017014    0.19243999    -0.12020000
opls_141-244    C    0.05051008    0.52363003    0.11531979    -0.06660000
opls_543-245    C    0.02350003    0.51109009    0.13218011    0.17610000
opls_700-246    C    0.25361006    0.61677005    0.46701990    0.02930000
opls_145-247    C    0.27904996    0.63275001    0.43429020    -0.18260000
opls_700-248    C    0.30420003    0.64840000    0.46707983    0.05950000
opls_716-249    C    0.08700004    0.54093999    0.03155014    -0.20250000
opls_543-250    C    0.05899004    0.52753000    0.95018978    0.19380000
opls_716-251    C    0.01385998    0.50652004    0.80312983    -0.17120000
opls_701-252    C    0.33333008    0.66667005    0.43795011    -0.07800000
opls_701-253    C    0.66666992    0.33332995    0.43795011    -0.07800000
opls_701-254    C    0.66666992    0.33332995    0.56204989    -0.07800000
opls_701-255    C    0.33333008    0.66667005    0.56204989    -0.07800000
opls_750-256    N    0.43221994    0.57314003    0.70746988    -0.34550000
opls_750-257    N    0.42686005    0.85908013    0.70746988    -0.34540000
opls_750-258    N    0.14091993    0.56778005    0.70746988    -0.34540000
opls_750-259    N    0.56778006    0.42685997    0.70746988    -0.34550000
opls_750-260    N    0.57314005    0.14092008    0.70746988    -0.34550000
opls_750-261    N    0.85908007    0.43221995    0.70746988    -0.34530000
opls_750-262    N    0.56778006    0.42685997    0.29253012    -0.34550000
opls_750-263    N    0.57314005    0.14092008    0.29253012    -0.34550000
opls_750-264    N    0.85908007    0.43221995    0.29253012    -0.34550000
opls_750-265    N    0.43221994    0.57314003    0.29253012    -0.34550000
opls_750-266    N    0.42686005    0.85908013    0.29253012    -0.34550000
opls_750-267    N    0.14091993    0.56778005    0.29253012    -0.34540000
opls_542-268    N    0.48080999    0.52219011    0.00000000    -0.39550000
opls_542-269    N    0.47781006    0.95862012    0.00000000    -0.39520000
opls_542-270    N    0.04138005    0.51918998    0.00000000    -0.39550000
opls_542-271    N    0.51919012    0.47781010    0.00000000    -0.39550000
opls_542-272    N    0.52219005    0.04138009    0.00000000    -0.39550000
opls_542-273    N    0.95861995    0.48081002    0.00000000    -0.39540000
opls_542-274    N    0.50000000    0.50000000    0.09051015    -0.39460000
opls_542-275    N    0.50000000    0.00000000    0.09051015    -0.39470000
opls_542-276    N    0.00000000    0.50000000    0.09051015    -0.39470000
opls_542-277    N    0.50000000    0.50000000    0.90948985    -0.39470000
opls_542-278    N    0.50000000    0.00000000    0.90948985    -0.39470000
opls_542-279    N    0.00000000    0.50000000    0.90948985    -0.39460000
opls_146-280    H    0.43935002    0.66481011    0.55903016    0.11370000
opls_146-281    H    0.46555999    0.64784005    0.62132998    0.11340000
opls_146-282    H    0.38836997    0.56856005    0.65044018    0.11410000
opls_146-283    H    0.36249007    0.58566011    0.58771016    0.11080000
opls_144-284    H    0.46736993    0.61184002    0.68630018    0.11920000
opls_146-285    H    0.40897997    0.51983998    0.74305021    0.11340000
opls_146-286    H    0.48323008    0.60174004    0.77013022    0.11850000
opls_146-287    H    0.50151006    0.58116996    0.84456983    0.11200000
opls_146-288    H    0.42748999    0.49940010    0.81894021    0.11340000
opls_146-289    H    0.36699998    0.64625004    0.61603988    0.11200000
opls_547-290    H    0.45002004    0.55561996    0.93917009    0.11550000
opls_547-291    H    0.48744007    0.51424008    0.23831991    0.11510000
opls_146-292    H    0.33519013    0.77454013    0.55903016    0.11370000
opls_146-293    H    0.35216003    0.81772012    0.62132998    0.11340000
opls_146-294    H    0.43143995    0.81981004    0.65044018    0.11410000
opls_146-295    H    0.41433992    0.77683002    0.58771016    0.11090000
opls_144-296    H    0.38815993    0.85552999    0.68630018    0.11920000
opls_146-297    H    0.48016006    0.88914015    0.74305021    0.11340000
opls_146-298    H    0.39826006    0.88149007    0.77013022    0.11850000
opls_146-299    H    0.41883014    0.92034015    0.84456983    0.11200000
opls_146-300    H    0.50060008    0.92808999    0.81894021    0.11340000
opls_146-301    H    0.35375007    0.72075010    0.61603988    0.11200000
opls_547-302    H    0.44438002    0.89440015    0.93917009    0.11550000
opls_547-303    H    0.48575999    0.97320010    0.23831991    0.11510000
opls_146-304    H    0.22545996    0.56064997    0.55903016    0.11370000
opls_146-305    H    0.18228008    0.53444004    0.62132998    0.11340000
opls_146-306    H    0.18019000    0.61163012    0.65044018    0.11410000
opls_146-307    H    0.22317011    0.63751009    0.58771016    0.11200000
opls_144-308    H    0.14446996    0.53262999    0.68630018    0.11920000
opls_146-309    H    0.11086007    0.59102008    0.74305021    0.11340000
opls_146-310    H    0.11850997    0.51677010    0.77013022    0.11850000
opls_146-311    H    0.07966009    0.49849011    0.84456983    0.11200000
opls_146-312    H    0.07191003    0.57251012    0.81894021    0.11340000
opls_146-313    H    0.27925005    0.63300007    0.61603988    0.11200000
opls_547-314    H    0.10560005    0.54998011    0.93917009    0.11550000
opls_547-315    H    0.02680005    0.51256003    0.23831991    0.11510000
opls_146-316    H    0.56065008    0.33519010    0.55903016    0.11370000
opls_146-317    H    0.53444001    0.35215995    0.62132998    0.11340000
opls_146-318    H    0.61163003    0.43143995    0.65044018    0.11410000
opls_146-319    H    0.63751003    0.41434011    0.58771016    0.11080000
opls_144-320    H    0.53263007    0.38815998    0.68630018    0.11920000
opls_146-321    H    0.59102003    0.48016002    0.74305021    0.11340000
opls_146-322    H    0.51676992    0.39825996    0.77013022    0.11850000
opls_146-323    H    0.49848994    0.41883004    0.84456983    0.11200000
opls_146-324    H    0.57251011    0.50060011    0.81894021    0.11340000
opls_146-325    H    0.63300002    0.35374996    0.61603988    0.11200000
opls_547-326    H    0.54997996    0.44438004    0.93917009    0.11560000
opls_547-327    H    0.51256004    0.48576013    0.23831991    0.11510000
opls_146-328    H    0.66480998    0.22546008    0.55903016    0.11380000
opls_146-329    H    0.64784008    0.18228009    0.62132998    0.11350000
opls_146-330    H    0.56856005    0.18018996    0.65044018    0.11410000
opls_146-331    H    0.58566008    0.22316998    0.58771016    0.11080000
opls_144-332    H    0.61184007    0.14447001    0.68630018    0.11920000
opls_146-333    H    0.51984004    0.11086006    0.74305021    0.11340000
opls_146-334    H    0.60173994    0.11850993    0.77013022    0.11850000
opls_146-335    H    0.58116997    0.07966007    0.84456983    0.11210000
opls_146-336    H    0.49939992    0.07191001    0.81894021    0.11340000
opls_146-337    H    0.64625003    0.27925011    0.61603988    0.11200000
opls_547-338    H    0.55562009    0.10560007    0.93917009    0.11550000
opls_547-339    H    0.51424012    0.02680011    0.23831991    0.11520000
opls_146-340    H    0.77454004    0.43935003    0.55903016    0.11370000
opls_146-341    H    0.81771992    0.46555996    0.62132998    0.11340000
opls_146-342    H    0.81981011    0.38837009    0.65044018    0.11410000
opls_146-343    H    0.77683000    0.36249012    0.58771016    0.11080000
opls_144-344    H    0.85553004    0.46737001    0.68630018    0.11920000
opls_146-345    H    0.88914003    0.40898013    0.74305021    0.11340000
opls_146-346    H    0.88149014    0.48323012    0.77013022    0.11850000
opls_146-347    H    0.92034002    0.50151010    0.84456983    0.11200000
opls_146-348    H    0.92809007    0.42749010    0.81894021    0.11340000
opls_146-349    H    0.72074995    0.36699993    0.61603988    0.11200000
opls_547-350    H    0.89440006    0.45002010    0.93917009    0.11550000
opls_547-351    H    0.97319995    0.48743997    0.23831991    0.11510000
opls_146-352    H    0.56065008    0.33519010    0.44096984    0.11370000
opls_146-353    H    0.53444001    0.35215995    0.37867002    0.11340000
opls_146-354    H    0.61163003    0.43143995    0.34955982    0.11410000
opls_146-355    H    0.63751003    0.41434011    0.41228984    0.11080000
opls_144-356    H    0.53263007    0.38815998    0.31369982    0.11920000
opls_146-357    H    0.59102003    0.48016002    0.25694979    0.11350000
opls_146-358    H    0.51676992    0.39825996    0.22986978    0.11850000
opls_146-359    H    0.49848994    0.41883004    0.15543017    0.11200000
opls_146-360    H    0.57251011    0.50060011    0.18105979    0.11340000
opls_146-361    H    0.63300002    0.35374996    0.38396012    0.11200000
opls_547-362    H    0.54997996    0.44438004    0.06082991    0.11550000
opls_547-363    H    0.51256004    0.48576013    0.76168009    0.11510000
opls_146-364    H    0.66480998    0.22546008    0.44096984    0.11370000
opls_146-365    H    0.64784008    0.18228009    0.37867002    0.11340000
opls_146-366    H    0.56856005    0.18018996    0.34955982    0.11410000
opls_146-367    H    0.58566008    0.22316998    0.41228984    0.11080000
opls_144-368    H    0.61184007    0.14447001    0.31369982    0.11920000
opls_146-369    H    0.51984004    0.11086006    0.25694979    0.11340000
opls_146-370    H    0.60173994    0.11850993    0.22986978    0.11850000
opls_146-371    H    0.58116997    0.07966007    0.15543017    0.11200000
opls_146-372    H    0.49939992    0.07191001    0.18105979    0.11340000
opls_146-373    H    0.64625003    0.27925011    0.38396012    0.11200000
opls_547-374    H    0.55562009    0.10560007    0.06082991    0.11550000
opls_547-375    H    0.51424012    0.02680011    0.76168009    0.11510000
opls_146-376    H    0.77454004    0.43935003    0.44096984    0.11380000
opls_146-377    H    0.81771992    0.46555996    0.37867002    0.11340000
opls_146-378    H    0.81981011    0.38837009    0.34955982    0.11410000
opls_146-379    H    0.77683000    0.36249012    0.41228984    0.11080000
opls_144-380    H    0.85553004    0.46737001    0.31369982    0.11920000
opls_146-381    H    0.88914003    0.40898013    0.25694979    0.11340000
opls_146-382    H    0.88149014    0.48323012    0.22986978    0.11850000
opls_146-383    H    0.92034002    0.50151010    0.15543017    0.11200000
opls_146-384    H    0.92809007    0.42749010    0.18105979    0.11340000
opls_146-385    H    0.72074995    0.36699993    0.38396012    0.11200000
opls_547-386    H    0.89440006    0.45002010    0.06082991    0.11550000
opls_547-387    H    0.97319995    0.48743997    0.76168009    0.11520000
opls_146-388    H    0.43935002    0.66481011    0.44096984    0.11370000
opls_146-389    H    0.46555999    0.64784005    0.37867002    0.11340000
opls_146-390    H    0.38836997    0.56856005    0.34955982    0.11410000
opls_146-391    H    0.36249007    0.58566011    0.41228984    0.11080000
opls_144-392    H    0.46736993    0.61184002    0.31369982    0.11920000
opls_146-393    H    0.40897997    0.51983998    0.25694979    0.11340000
opls_146-394    H    0.48323008    0.60174004    0.22986978    0.11850000
opls_146-395    H    0.50151006    0.58116996    0.15543017    0.11200000
opls_146-396    H    0.42748999    0.49940010    0.18105979    0.11340000
opls_146-397    H    0.36699998    0.64625004    0.38396012    0.11200000
opls_547-398    H    0.45002004    0.55561996    0.06082991    0.11550000
opls_547-399    H    0.48744007    0.51424008    0.76168009    0.11510000
opls_146-400    H    0.33519013    0.77454013    0.44096984    0.11370000
opls_146-401    H    0.35216003    0.81772012    0.37867002    0.11340000
opls_146-402    H    0.43143995    0.81981004    0.34955982    0.11410000
opls_146-403    H    0.41433992    0.77683002    0.41228984    0.11080000
opls_144-404    H    0.38815993    0.85552999    0.31369982    0.11920000
opls_146-405    H    0.48016006    0.88914015    0.25694979    0.11350000
opls_146-406    H    0.39826006    0.88149007    0.22986978    0.11850000
opls_146-407    H    0.41883014    0.92034015    0.15543017    0.11200000
opls_146-408    H    0.50060008    0.92808999    0.18105979    0.11340000
opls_146-409    H    0.35375007    0.72075010    0.38396012    0.11200000
opls_547-410    H    0.44438002    0.89440015    0.06082991    0.11550000
opls_547-411    H    0.48575999    0.97320010    0.76168009    0.11510000
opls_146-412    H    0.22545996    0.56064997    0.44096984    0.11370000
opls_146-413    H    0.18228008    0.53444004    0.37867002    0.11340000
opls_146-414    H    0.18019000    0.61163012    0.34955982    0.11420000
opls_146-415    H    0.22317011    0.63751009    0.41228984    0.11210000
opls_144-416    H    0.14446996    0.53262999    0.31369982    0.11920000
opls_146-417    H    0.11086007    0.59102008    0.25694979    0.11340000
opls_146-418    H    0.11850997    0.51677010    0.22986978    0.11850000
opls_146-419    H    0.07966009    0.49849011    0.15543017    0.11200000
opls_146-420    H    0.07191003    0.57251012    0.18105979    0.11340000
opls_146-421    H    0.27925005    0.63300007    0.38396012    0.11200000
opls_547-422    H    0.10560005    0.54998011    0.06082991    0.11550000
opls_547-423    H    0.02680005    0.51256003    0.76168009    0.11510000
opls_702-424    H    0.33333008    0.66667005    0.38630994    0.07890000
opls_702-425    H    0.66666992    0.33332995    0.38630994    0.07900000
opls_702-426    H    0.66666992    0.33332995    0.61369006    0.07890000
opls_702-427    H    0.33333008    0.66667005    0.61369006    0.07890000
F2_Co4+2-428    Co    0.50000000    0.50000000    0.00000000    0.66660000
F2_Co4+2-429    Co    0.50000000    0.00000000    0.00000000    0.66670000
F2_Co4+2-430    Co    0.00000000    0.50000000    0.00000000    0.66660000
