#======================================================================
# Crystal Data Generated By AuToFF
#----------------------------------------------------------------------

data_AuToFF_phase_1

_cell_length_a                         38.8218
_cell_length_b                         38.8218
_cell_length_c                         3.5319
_cell_angle_alpha                      90.00
_cell_angle_beta                       90.00
_cell_angle_gamma                      120.00
_symmetry_space_group_name_H-M_alt     'P 1'
_symmetry_space_group_IT_number        1

loop_
_space_group_symop_operation_xyz
   'x, y, z'

loop_
   _atom_site_label
   _atom_site_type_symbol
   _atom_site_fract_x
   _atom_site_fract_y
   _atom_site_fract_z
   _atom_site_charge
opls_531-0    C    0.70731994    0.35775997    0.00000000    0.31080000
opls_145-1    C    0.83383995    0.43377987    0.00000000    0.19620000
opls_145-2    C    0.80842992    0.44985986    0.00000000    -0.21920000
opls_523-3    C    0.76683005    0.42492996    0.00000000    -0.18820000
opls_700-4    C    0.74919008    0.38290998    0.00000000    0.00430000
opls_523-5    C    0.77515983    0.36707984    0.00000000    -0.18760000
opls_145-6    C    0.81676991    0.39201985    0.00000000    -0.21820000
opls_142-7    C    0.09420988    0.54399987    0.00000000    0.10230000
opls_700-8    C    0.05432986    0.51173995    0.00000000    -0.06170000
opls_700-9    C    0.01994984    0.51686983    0.00000000    0.02530000
opls_145-10    C    0.97629999    0.44481981    0.00000000    -0.21260000
opls_145-11    C    0.00927995    0.43950998    0.00000000    -0.24090000
opls_166-12    C    0.04773994    0.47223985    0.00000000    0.25000000
opls_531-13    C    0.64224001    0.34955996    0.00000000    0.31080000
opls_145-14    C    0.56621979    0.40005984    0.00000000    0.19620000
opls_145-15    C    0.55013998    0.35856989    0.00000000    -0.21920000
opls_523-16    C    0.57507015    0.34190009    0.00000000    -0.18820000
opls_700-17    C    0.61709001    0.36628003    0.00000000    0.00430000
opls_523-18    C    0.63291986    0.40807991    0.00000000    -0.18760000
opls_145-19    C    0.60798005    0.42475001    0.00000000    -0.21820000
opls_142-20    C    0.45600003    0.55021003    0.00000000    0.10230000
opls_700-21    C    0.48825996    0.54259002    0.00000000    -0.06170000
opls_700-22    C    0.48312988    0.50307980    0.00000000    0.02530000
opls_145-23    C    0.55517990    0.53147989    0.00000000    -0.21260000
opls_145-24    C    0.56048996    0.56977003    0.00000000    -0.24090000
opls_166-25    C    0.52775991    0.57549983    0.00000000    0.25000000
opls_531-26    C    0.65044005    0.29268007    0.00000000    0.31080000
opls_145-27    C    0.59994011    0.16615998    0.00000000    0.19620000
opls_145-28    C    0.64142995    0.19156995    0.00000000    -0.21920000
opls_523-29    C    0.65810005    0.23316995    0.00000000    -0.18820000
opls_700-30    C    0.63371991    0.25080999    0.00000000    0.00430000
opls_523-31    C    0.59191990    0.22483996    0.00000000    -0.18760000
opls_145-32    C    0.57524989    0.18322984    0.00000000    -0.21820000
opls_142-33    C    0.44978994    0.90578980    0.00000000    0.10230000
opls_700-34    C    0.45740977    0.94566973    0.00000000    -0.06170000
opls_700-35    C    0.49691998    0.98004977    0.00000000    0.02530000
opls_145-36    C    0.46851997    0.02370000    0.00000000    -0.21260000
opls_145-37    C    0.43023010    0.99071999    0.00000000    -0.24090000
opls_166-38    C    0.42449985    0.95225973    0.00000000    0.25000000
opls_531-39    C    0.29268006    0.64224003    0.00000000    0.31080000
opls_145-40    C    0.16615990    0.56621983    0.00000000    0.19620000
opls_145-41    C    0.19156993    0.55013984    0.00000000    -0.21920000
opls_523-42    C    0.23316995    0.57507004    0.00000000    -0.18820000
opls_700-43    C    0.25080992    0.61709002    0.00000000    0.00430000
opls_523-44    C    0.22484002    0.63291987    0.00000000    -0.18760000
opls_145-45    C    0.18322994    0.60797985    0.00000000    -0.21820000
opls_142-46    C    0.90578997    0.45599984    0.00000000    0.10230000
opls_700-47    C    0.94567014    0.48826005    0.00000000    -0.06170000
opls_700-48    C    0.98005001    0.48312987    0.00000000    0.02530000
opls_145-49    C    0.02369986    0.55517989    0.00000000    -0.21260000
opls_145-50    C    0.99072005    0.56049002    0.00000000    -0.24090000
opls_166-51    C    0.95225991    0.52775986    0.00000000    0.25000000
opls_531-52    C    0.35775999    0.65044004    0.00000000    0.31080000
opls_145-53    C    0.43378006    0.59993986    0.00000000    0.19620000
opls_145-54    C    0.44985987    0.64142981    0.00000000    -0.21920000
opls_523-55    C    0.42492985    0.65809991    0.00000000    -0.18820000
opls_700-56    C    0.38290999    0.63371997    0.00000000    0.00430000
opls_523-57    C    0.36707999    0.59191979    0.00000000    -0.18760000
opls_145-58    C    0.39201995    0.57524999    0.00000000    -0.21820000
opls_142-59    C    0.54399997    0.44978997    0.00000000    0.10230000
opls_700-60    C    0.51174004    0.45740998    0.00000000    -0.06170000
opls_700-61    C    0.51686997    0.49691990    0.00000000    0.02530000
opls_145-62    C    0.44481995    0.46851981    0.00000000    -0.21260000
opls_145-63    C    0.43951004    0.43022997    0.00000000    -0.24090000
opls_166-64    C    0.47223994    0.42449987    0.00000000    0.25000000
opls_531-65    C    0.34955995    0.70731993    0.00000000    0.31080000
opls_145-66    C    0.40005989    0.83384002    0.00000000    0.19620000
opls_145-67    C    0.35856990    0.80842975    0.00000000    -0.21920000
opls_523-68    C    0.34189980    0.76682975    0.00000000    -0.18820000
opls_700-69    C    0.36628009    0.74919001    0.00000000    0.00430000
opls_523-70    C    0.40807995    0.77515975    0.00000000    -0.18760000
opls_145-71    C    0.42474996    0.81676986    0.00000000    -0.21820000
opls_142-72    C    0.55020991    0.09420990    0.00000000    0.10230000
opls_700-73    C    0.54259008    0.05432997    0.00000000    -0.06170000
opls_700-74    C    0.50307987    0.01994993    0.00000000    0.02530000
opls_145-75    C    0.53148003    0.97630000    0.00000000    -0.21260000
opls_145-76    C    0.56976990    0.00928001    0.00000000    -0.24090000
opls_166-77    C    0.57550000    0.04773998    0.00000000    0.25000000
opls_520-78    N    0.68242002    0.37277990    0.00000000    -0.50660000
opls_750-79    N    0.12669005    0.53970995    0.00000000    -0.32010000
opls_520-80    N    0.62721998    0.30963987    0.00000000    -0.50630000
opls_750-81    N    0.46029008    0.58697997    0.00000000    -0.32010000
opls_520-82    N    0.69035986    0.31757993    0.00000000    -0.50680000
opls_750-83    N    0.41301997    0.87330978    0.00000000    -0.32010000
opls_520-84    N    0.31757984    0.62721980    0.00000000    -0.50630000
opls_750-85    N    0.87330995    0.46029005    0.00000000    -0.32010000
opls_520-86    N    0.37277987    0.69035983    0.00000000    -0.50680000
opls_750-87    N    0.53970992    0.41302003    0.00000000    -0.31990000
opls_520-88    N    0.30964000    0.68241977    0.00000000    -0.50680000
opls_750-89    N    0.58697988    0.12668992    0.00000000    -0.32010000
opls_146-90    H    0.82038007    0.48009989    0.00000000    0.21930000
opls_526-91    H    0.74948994    0.43791007    0.00000000    0.21930000
opls_526-92    H    0.76394996    0.33697008    0.00000000    0.21930000
opls_146-93    H    0.83428995    0.37933004    0.00000000    0.21950000
opls_144-94    H    0.09982996    0.57240977    0.00000000    0.10650000
opls_146-95    H    0.94956999    0.41924982    0.00000000    0.21950000
opls_146-96    H    0.00518004    0.41136004    0.00000000    0.21930000
opls_168-97    H    0.92977998    0.56522996    0.00000000    0.30990000
opls_146-98    H    0.51989991    0.34027995    0.00000000    0.21930000
opls_526-99    H    0.56209009    0.31158005    0.00000000    0.21940000
opls_526-100    H    0.66302989    0.42697989    0.00000000    0.21930000
opls_146-101    H    0.62066991    0.45496000    0.00000000    0.21940000
opls_144-102    H    0.42759003    0.52741989    0.00000000    0.10650000
opls_146-103    H    0.58074990    0.53031989    0.00000000    0.21950000
opls_146-104    H    0.58863981    0.59381981    0.00000000    0.21930000
opls_168-105    H    0.43476991    0.36454984    0.00000000    0.30990000
opls_146-106    H    0.65971988    0.17961986    0.00000000    0.21930000
opls_526-107    H    0.68841997    0.25050988    0.00000000    0.21930000
opls_526-108    H    0.57301989    0.23605003    0.00000000    0.21930000
opls_146-109    H    0.54503989    0.16570996    0.00000000    0.21950000
opls_144-110    H    0.47257997    0.90016975    0.00000000    0.10650000
opls_146-111    H    0.46967996    0.05042999    0.00000000    0.21950000
opls_146-112    H    0.40618000    0.99481985    0.00000000    0.21930000
opls_168-113    H    0.63544996    0.07021990    0.00000000    0.30990000
opls_146-114    H    0.17961978    0.51989981    0.00000000    0.21930000
opls_526-115    H    0.25051006    0.56208993    0.00000000    0.21930000
opls_526-116    H    0.23605004    0.66302992    0.00000000    0.21930000
opls_146-117    H    0.16571005    0.62066996    0.00000000    0.21940000
opls_144-118    H    0.90016989    0.42758993    0.00000000    0.10650000
opls_146-119    H    0.05042986    0.58074988    0.00000000    0.21950000
opls_146-120    H    0.99481996    0.58863996    0.00000000    0.21930000
opls_168-121    H    0.07022002    0.43477004    0.00000000    0.30990000
opls_146-122    H    0.48010009    0.65972005    0.00000000    0.21930000
opls_526-123    H    0.43790991    0.68841995    0.00000000    0.21930000
opls_526-124    H    0.33696996    0.57301981    0.00000000    0.21930000
opls_146-125    H    0.37933009    0.54504000    0.00000000    0.21940000
opls_144-126    H    0.57240982    0.47257981    0.00000000    0.10650000
opls_146-127    H    0.41924995    0.46967981    0.00000000    0.21950000
opls_146-128    H    0.41136004    0.40617989    0.00000000    0.21930000
opls_168-129    H    0.56522994    0.63544986    0.00000000    0.30990000
opls_146-130    H    0.34027997    0.82037984    0.00000000    0.21930000
opls_526-131    H    0.31157989    0.74948982    0.00000000    0.21930000
opls_526-132    H    0.42698011    0.76394997    0.00000000    0.21930000
opls_146-133    H    0.45495996    0.83428974    0.00000000    0.21940000
opls_144-134    H    0.52741988    0.09982996    0.00000000    0.10650000
opls_146-135    H    0.53031989    0.94956971    0.00000000    0.21960000
opls_146-136    H    0.59382000    0.00518015    0.00000000    0.21930000
opls_168-137    H    0.36454989    0.92977981    0.00000000    0.30990000
opls_167-138    O    0.07678988    0.46254997    0.00000000    -0.46640000
opls_167-139    O    0.53745012    0.61423999    0.00000000    -0.46640000
opls_167-140    O    0.38575985    0.92320974    0.00000000    -0.46640000
opls_167-141    O    0.92321012    0.53745003    0.00000000    -0.46640000
opls_167-142    O    0.46254988    0.38576001    0.00000000    -0.46640000
opls_167-143    O    0.61424000    0.07678996    0.00000000    -0.46640000
