#======================================================================
# Crystal Data Generated By AuToFF
#----------------------------------------------------------------------

data_AuToFF_phase_1

_cell_length_a                         33.3360
_cell_length_b                         33.3360
_cell_length_c                         3.4370
_cell_angle_alpha                      90.00
_cell_angle_beta                       90.00
_cell_angle_gamma                      120.00
_symmetry_space_group_name_H-M_alt     'P 1'
_symmetry_space_group_IT_number        1

loop_
_space_group_symop_operation_xyz
   'x, y, z'

loop_
   _atom_site_label
   _atom_site_type_symbol
   _atom_site_fract_x
   _atom_site_fract_y
   _atom_site_fract_z
   _atom_site_charge
opls_700-0    C    0.28506991    0.64205007    0.50000000    0.08240000
opls_700-1    C    0.35794986    0.64301994    0.50000000    0.08240000
opls_700-2    C    0.35697993    0.71492999    0.50000000    0.08240000
opls_145-3    C    0.30891011    0.69013004    0.50000000    -0.14270000
opls_145-4    C    0.30987001    0.61878010    0.50000000    -0.14270000
opls_145-5    C    0.38122005    0.69109021    0.50000000    -0.14270000
opls_700-6    C    0.38266007    0.76679003    0.50000000    0.07650000
opls_700-7    C    0.23321015    0.61587014    0.50000000    0.07650000
opls_700-8    C    0.38412996    0.61734018    0.50000000    0.07650000
opls_145-9    C    0.35930012    0.79179018    0.50000000    -0.14580000
opls_145-10    C    0.20820992    0.56750995    0.50000000    -0.14580000
opls_145-11    C    0.43249014    0.64070022    0.50000000    -0.14580000
opls_145-12    C    0.43111016    0.79269008    0.50000000    -0.14030000
opls_145-13    C    0.20730994    0.63841998    0.50000000    -0.14030000
opls_145-14    C    0.36157990    0.56888993    0.50000000    -0.14030000
opls_145-15    C    0.38281981    0.83950991    0.50000000    -0.15450000
opls_145-16    C    0.16048986    0.54330993    0.50000000    -0.15450000
opls_145-17    C    0.45669003    0.61718016    0.50000000    -0.15450000
opls_145-18    C    0.45484004    0.84035023    0.50000000    -0.14170000
opls_145-19    C    0.15964998    0.61449015    0.50000000    -0.14170000
opls_145-20    C    0.38550985    0.54515996    0.50000000    -0.14170000
opls_145-21    C    0.43108024    0.86501024    0.50000000    0.26610000
opls_145-22    C    0.13498996    0.56607003    0.50000000    0.26610000
opls_145-23    C    0.43392998    0.56892007    0.50000000    0.26610000
opls_142-24    C    0.49510011    0.93956007    0.50000000    0.08440000
opls_142-25    C    0.06044009    0.55554001    0.50000000    0.08440000
opls_142-26    C    0.44446010    0.50489993    0.50000000    0.08440000
opls_700-27    C    0.51622999    0.98933003    0.50000000    0.07200000
opls_700-28    C    0.01067015    0.52690006    0.50000000    0.07200000
opls_700-29    C    0.47309985    0.48376990    0.50000000    0.07200000
opls_145-30    C    0.48932992    0.01064988    0.50000000    -0.11310000
opls_145-31    C    0.98934998    0.47868016    0.50000000    -0.11310000
opls_145-32    C    0.52132010    0.51066997    0.50000000    -0.11310000
opls_145-33    C    0.56432995    0.01668005    0.50000000    -0.14030000
opls_145-34    C    0.98332019    0.54765011    0.50000000    -0.14030000
opls_145-35    C    0.45235003    0.43567019    0.50000000    -0.14030000
opls_145-36    C    0.51033002    0.05831003    0.50000000    -0.05050000
opls_145-37    C    0.94169011    0.45202014    0.50000000    -0.05050000
opls_145-38    C    0.54798004    0.48967018    0.50000000    -0.05050000
opls_145-39    C    0.58537010    0.06447009    0.50000000    -0.05060000
opls_145-40    C    0.93553011    0.52090003    0.50000000    -0.05060000
opls_145-41    C    0.47909980    0.41462988    0.50000000    -0.05060000
opls_145-42    C    0.55837021    0.08537012    0.50000000    -0.20070000
opls_145-43    C    0.91463004    0.47300018    0.50000000    -0.20070000
opls_145-44    C    0.52699993    0.44163005    0.50000000    -0.20070000
opls_166-45    C    0.59088002    0.20792994    0.50000000    0.21220000
opls_166-46    C    0.79206989    0.38295008    0.50000000    0.21230000
opls_166-47    C    0.61705009    0.40911997    0.50000000    0.21230000
opls_166-48    C    0.63465998    0.21140000    0.50000000    0.21220000
opls_166-49    C    0.78859994    0.42326000    0.50000000    0.21220000
opls_166-50    C    0.57674007    0.36534000    0.50000000    0.21220000
opls_145-51    C    0.58573005    0.24587995    0.50000000    -0.18770000
opls_145-52    C    0.75411989    0.33985006    0.50000000    -0.18770000
opls_145-53    C    0.66015005    0.41426999    0.50000000    -0.18770000
opls_145-54    C    0.67462998    0.25292988    0.50000000    -0.18470000
opls_145-55    C    0.74706995    0.42169989    0.50000000    -0.18450000
opls_145-56    C    0.57829989    0.32536988    0.50000000    -0.18470000
opls_700-57    C    0.62319000    0.33003011    0.50000000    0.03450000
opls_700-58    C    0.66997009    0.29316012    0.50000000    0.03450000
opls_700-59    C    0.70684008    0.37681011    0.50000000    0.03450000
opls_700-60    C    0.66306011    0.37334005    0.50000000    0.03680000
opls_700-61    C    0.62665996    0.28972020    0.50000000    0.03680000
opls_700-62    C    0.71028010    0.33694010    0.50000000    0.03680000
opls_750-63    N    0.45116017    0.91276011    0.50000000    -0.16500000
opls_750-64    N    0.08723994    0.53839996    0.50000000    -0.16490000
opls_750-65    N    0.46159989    0.54883993    0.50000000    -0.16500000
MOF2_B_2-66    B    0.58130995    0.13785988    0.50000000    0.68860000
MOF2_B_2-67    B    0.86213984    0.44344994    0.50000000    0.68850000
MOF2_B_2-68    B    0.55655021    0.41869018    0.50000000    0.68860000
opls_167-69    O    0.55758014    0.16226010    0.50000000    -0.26650000
opls_167-70    O    0.83774014    0.39532010    0.50000000    -0.26650000
opls_167-71    O    0.60468020    0.44242015    0.50000000    -0.26650000
opls_167-72    O    0.62890008    0.16790995    0.50000000    -0.26650000
opls_167-73    O    0.83209000    0.46099006    0.50000000    -0.26650000
opls_167-74    O    0.53900992    0.37109999    0.50000000    -0.26650000
opls_146-75    H    0.28842995    0.70869995    0.50000000    0.05410000
opls_146-76    H    0.29130007    0.57972997    0.50000000    0.05410000
opls_146-77    H    0.42026998    0.71157008    0.50000000    0.05410000
opls_146-78    H    0.31980987    0.77176997    0.50000000    0.05010000
opls_146-79    H    0.22822993    0.54804013    0.50000000    0.05020000
opls_146-80    H    0.45195990    0.68018990    0.50000000    0.05010000
opls_146-81    H    0.45219991    0.77432003    0.50000000    0.05010000
opls_146-82    H    0.22567997    0.67788022    0.50000000    0.05010000
opls_146-83    H    0.32211999    0.54780009    0.50000000    0.05010000
opls_146-84    H    0.36197007    0.85812000    0.50000000    0.05010000
opls_146-85    H    0.14188002    0.50385004    0.50000000    0.05010000
opls_146-86    H    0.49614991    0.63802996    0.50000000    0.05010000
opls_146-87    H    0.49432983    0.86017994    0.50000000    0.05010000
opls_146-88    H    0.13982014    0.63415013    0.50000000    0.05010000
opls_146-89    H    0.36585003    0.50566993    0.50000000    0.05010000
opls_144-90    H    0.51773996    0.92285993    0.50000000    0.02960000
opls_144-91    H    0.07714005    0.59488005    0.50000000    0.02960000
opls_144-92    H    0.40511999    0.48226002    0.50000000    0.02960000
opls_146-93    H    0.44993003    0.98861995    0.50000000    0.05010000
opls_146-94    H    0.01138010    0.46131012    0.50000000    0.05010000
opls_146-95    H    0.53868987    0.55006993    0.50000000    0.05010000
opls_146-96    H    0.58670987    0.99970003    0.50000000    0.05010000
opls_146-97    H    0.00030000    0.58700989    0.50000000    0.05010000
opls_146-98    H    0.41299013    0.41329007    0.50000000    0.05010000
opls_146-99    H    0.48813994    0.07549995    0.50000000    0.05010000
opls_146-100    H    0.92450000    0.41263991    0.50000000    0.05020000
opls_146-101    H    0.58736005    0.51186014    0.50000000    0.05010000
opls_146-102    H    0.62477006    0.08653016    0.50000000    0.05010000
opls_146-103    H    0.91346992    0.53823993    0.50000000    0.05010000
opls_146-104    H    0.46176002    0.37522991    0.50000000    0.05010000
opls_146-105    H    0.55029004    0.24324987    0.50000000    0.05010000
opls_146-106    H    0.75675015    0.30704002    0.50000000    0.05010000
opls_146-107    H    0.69296011    0.44971011    0.50000000    0.05010000
opls_146-108    H    0.70946006    0.25423989    0.50000000    0.05010000
opls_146-109    H    0.74576006    0.45522002    0.50000000    0.05010000
opls_146-110    H    0.54478018    0.29054009    0.50000000    0.05010000
