#======================================================================
# Crystal Data Generated By AuToFF
#----------------------------------------------------------------------

data_AuToFF_phase_1

_cell_length_a                         39.2100
_cell_length_b                         39.2100
_cell_length_c                         4.7100
_cell_angle_alpha                      90.00
_cell_angle_beta                       90.00
_cell_angle_gamma                      90.00
_symmetry_space_group_name_H-M_alt     'P 1'
_symmetry_space_group_IT_number        1

loop_
_space_group_symop_operation_xyz
   'x, y, z'

loop_
   _atom_site_label
   _atom_site_type_symbol
   _atom_site_fract_x
   _atom_site_fract_y
   _atom_site_fract_z
   _atom_site_charge
opls_700-0    C    0.24982989    0.73571997    0.66339066    0.02190000
opls_700-1    C    0.75017011    0.26428003    0.66339066    0.02190000
opls_700-2    C    0.26428003    0.24982989    0.66339066    0.02190000
opls_700-3    C    0.73571997    0.75017011    0.66339066    0.02190000
opls_166-4    C    0.22165009    0.78627008    0.46394904    0.23570000
opls_145-5    C    0.24846009    0.19299005    0.82143949    -0.11360000
opls_166-6    C    0.27837006    0.71375006    0.67938004    0.23570000
opls_145-7    C    0.25152002    0.30703009    0.32190021    -0.11460000
opls_166-8    C    0.77834991    0.21372992    0.46394904    0.23580000
opls_145-9    C    0.75153991    0.80700995    0.82143949    -0.11360000
opls_166-10    C    0.72163989    0.28624994    0.67938004    0.23570000
opls_145-11    C    0.74847998    0.69296991    0.32190021    -0.11460000
opls_166-12    C    0.21372992    0.22165009    0.46394904    0.23570000
opls_145-13    C    0.80700995    0.24846009    0.82143949    -0.11360000
opls_166-14    C    0.28624994    0.27837006    0.67938004    0.23570000
opls_145-15    C    0.69296991    0.25152002    0.32190021    -0.11470000
opls_166-16    C    0.78627008    0.77834991    0.46394904    0.23570000
opls_145-17    C    0.19299005    0.75153991    0.82143949    -0.11360000
opls_166-18    C    0.71375006    0.72163989    0.67938004    0.23570000
opls_145-19    C    0.30703009    0.74847998    0.32190021    -0.11360000
opls_700-20    C    0.25019000    0.76428998    0.47994904    0.02150000
opls_145-21    C    0.27038995    0.22090997    0.83132059    -0.11540000
opls_700-22    C    0.74981000    0.23571002    0.47994904    0.02140000
opls_145-23    C    0.72961005    0.77909003    0.83132059    -0.11540000
opls_700-24    C    0.23571002    0.25019000    0.47994904    0.02140000
opls_145-25    C    0.77909003    0.27038995    0.83132059    -0.11540000
opls_700-26    C    0.76428998    0.74981000    0.47994904    0.02140000
opls_145-27    C    0.22090997    0.72961005    0.83132059    -0.11540000
opls_700-28    C    0.19304999    0.78033002    0.64422081    -0.03600000
opls_700-29    C    0.30696991    0.71968988    0.49911040    -0.03600000
opls_700-30    C    0.80695001    0.21966998    0.64422081    -0.03600000
opls_700-31    C    0.69303009    0.28031012    0.49911040    -0.03150000
opls_700-32    C    0.21966998    0.19304999    0.64422081    -0.03600000
opls_700-33    C    0.28031012    0.30696991    0.49911040    -0.03600000
opls_700-34    C    0.78033002    0.80695001    0.64422081    -0.03600000
opls_700-35    C    0.71968988    0.69303009    0.49911040    -0.03160000
opls_543-36    C    0.07119000    0.02499005    0.74733970    0.18730000
opls_543-37    C    0.07125988    0.97012012    0.75711040    0.18840000
opls_543-38    C    0.42880005    0.47501989    0.39594055    0.18730000
opls_543-39    C    0.92881000    0.97500995    0.74733970    0.18730000
opls_543-40    C    0.92874012    0.02987988    0.75711040    0.18840000
opls_543-41    C    0.57119995    0.52498011    0.39594055    0.18730000
opls_543-42    C    0.97500995    0.07119000    0.74733970    0.18730000
opls_543-43    C    0.02987988    0.07125988    0.75711040    0.18840000
opls_543-44    C    0.52498011    0.42880005    0.39594055    0.18730000
opls_543-45    C    0.02499005    0.92881000    0.74733970    0.18730000
opls_543-46    C    0.97012012    0.92874012    0.75711040    0.18840000
opls_543-47    C    0.47501989    0.57119995    0.39594055    0.18730000
opls_716-48    C    0.10666998    0.01355011    0.76408917    -0.19280000
opls_716-49    C    0.10665009    0.98052002    0.78016985    -0.19410000
opls_716-50    C    0.39333002    0.48646009    0.37918896    -0.19280000
opls_716-51    C    0.89333002    0.98644989    0.76408917    -0.19280000
opls_716-52    C    0.89334991    0.01947998    0.78016985    -0.19410000
opls_716-53    C    0.60666998    0.51353991    0.37918896    -0.19280000
opls_716-54    C    0.98644989    0.10666998    0.76408917    -0.19280000
opls_716-55    C    0.01947998    0.10665009    0.78016985    -0.19410000
opls_716-56    C    0.51353991    0.39333002    0.37918896    -0.19280000
opls_716-57    C    0.01355011    0.89333002    0.76408917    -0.19280000
opls_716-58    C    0.98052002    0.89334991    0.78016985    -0.19410000
opls_716-59    C    0.48646009    0.60666998    0.37918896    -0.19280000
opls_543-60    C    0.52989008    0.57125988    0.38616985    0.18890000
opls_543-61    C    0.47010992    0.42874012    0.38616985    0.18890000
opls_543-62    C    0.42874012    0.52989008    0.38616985    0.18890000
opls_543-63    C    0.57125988    0.47010992    0.38616985    0.18890000
opls_716-64    C    0.51948993    0.60665009    0.36311040    -0.19410000
opls_716-65    C    0.48051007    0.39334991    0.36311040    -0.19410000
opls_716-66    C    0.39334991    0.51948993    0.36311040    -0.19410000
opls_716-67    C    0.60665009    0.48051007    0.36311040    -0.19410000
opls_141-68    C    0.06217011    0.06125988    0.73056900    -0.06970000
opls_141-69    C    0.43782989    0.43875006    0.41270913    -0.06970000
opls_141-70    C    0.93782989    0.93874012    0.73056900    -0.06970000
opls_141-71    C    0.56217011    0.56124994    0.41270913    -0.06970000
opls_141-72    C    0.93874012    0.06217011    0.73056900    -0.06970000
opls_141-73    C    0.56124994    0.43782989    0.41270913    -0.06970000
opls_141-74    C    0.06125988    0.93782989    0.73056900    -0.06970000
opls_141-75    C    0.43875006    0.56217011    0.41270913    -0.06970000
opls_700-76    C    0.08960010    0.08758990    0.69756900    0.06720000
opls_700-77    C    0.41038995    0.41242005    0.44571975    0.07080000
opls_700-78    C    0.91039990    0.91241010    0.69756900    0.06720000
opls_700-79    C    0.58961005    0.58757995    0.44571975    0.07080000
opls_700-80    C    0.91241010    0.08960010    0.69756900    0.06720000
opls_700-81    C    0.58757995    0.41038995    0.44571975    0.07080000
opls_700-82    C    0.08758990    0.91039990    0.69756900    0.06720000
opls_700-83    C    0.41242005    0.58961005    0.44571975    0.07080000
opls_145-84    C    0.11696991    0.08966004    0.88936943    -0.12720000
opls_145-85    C    0.11204999    0.91265009    0.48007006    -0.12760000
opls_145-86    C    0.38301989    0.41036011    0.25394055    -0.12760000
opls_145-87    C    0.38795996    0.58736011    0.66322930    -0.12760000
opls_145-88    C    0.88303009    0.91033996    0.88936943    -0.12760000
opls_145-89    C    0.88795001    0.08734991    0.48007006    -0.12760000
opls_145-90    C    0.61698011    0.58963989    0.25394055    -0.12760000
opls_145-91    C    0.61204004    0.41263989    0.66322930    -0.12760000
opls_145-92    C    0.91033996    0.11696991    0.88936943    -0.12760000
opls_145-93    C    0.08734991    0.11204999    0.48007006    -0.12760000
opls_145-94    C    0.58963989    0.38301989    0.25394055    -0.12760000
opls_145-95    C    0.41263989    0.38795996    0.66322930    -0.12760000
opls_145-96    C    0.08966004    0.88303009    0.88936943    -0.12720000
opls_145-97    C    0.91265009    0.88795001    0.48007006    -0.12760000
opls_145-98    C    0.41036011    0.61698011    0.25394055    -0.12760000
opls_145-99    C    0.58736011    0.61204004    0.66322930    -0.12760000
opls_145-100    C    0.14229992    0.11448993    0.85623992    -0.16460000
opls_145-101    C    0.13800995    0.88836011    0.45736093    -0.16330000
opls_145-102    C    0.35767993    0.38552997    0.28708068    -0.16260000
opls_145-103    C    0.36200000    0.61165009    0.68595966    -0.16330000
opls_145-104    C    0.85770008    0.88551007    0.85623992    -0.16460000
opls_145-105    C    0.86199005    0.11163989    0.45736093    -0.16330000
opls_145-106    C    0.64232007    0.61447003    0.28708068    -0.16260000
opls_145-107    C    0.63800000    0.38834991    0.68595966    -0.16330000
opls_145-108    C    0.88551007    0.14229992    0.85623992    -0.16460000
opls_145-109    C    0.11163989    0.13800995    0.45736093    -0.16330000
opls_145-110    C    0.61447003    0.35767993    0.28708068    -0.16260000
opls_145-111    C    0.38834991    0.36200000    0.68595966    -0.16330000
opls_145-112    C    0.11448993    0.85770008    0.85623992    -0.16460000
opls_145-113    C    0.88836011    0.86199005    0.45736093    -0.16330000
opls_145-114    C    0.38552997    0.64232007    0.28708068    -0.16260000
opls_145-115    C    0.61165009    0.63800000    0.68595966    -0.16330000
opls_145-116    C    0.13975006    0.13880005    0.63867091    0.19910000
opls_145-117    C    0.36023999    0.36120990    0.50464968    0.19900000
opls_145-118    C    0.86024994    0.86119995    0.63867091    0.19900000
opls_145-119    C    0.63976001    0.63879010    0.50464968    0.19900000
opls_145-120    C    0.86119995    0.13975006    0.63867091    0.19900000
opls_145-121    C    0.63879010    0.36023999    0.50464968    0.19900000
opls_145-122    C    0.13880005    0.86024994    0.63867091    0.19900000
opls_145-123    C    0.36120990    0.63976001    0.50464968    0.19900000
opls_145-124    C    0.77041010    0.72089008    0.31201911    -0.11510000
opls_142-125    C    0.69649987    0.66328998    0.47556900    0.07210000
opls_142-126    C    0.80351007    0.83670008    0.66776008    0.07210000
opls_145-127    C    0.22960010    0.27910992    0.31201911    -0.11520000
opls_142-128    C    0.30350013    0.33671002    0.47556900    0.07220000
opls_142-129    C    0.19648993    0.16329992    0.66776008    0.07210000
opls_145-130    C    0.27910992    0.77041010    0.31201911    -0.11520000
opls_142-131    C    0.33671002    0.69649987    0.47556900    0.07230000
opls_142-132    C    0.16329992    0.80351007    0.66776008    0.07210000
opls_145-133    C    0.72089008    0.22960010    0.31201911    -0.11520000
opls_142-134    C    0.66328998    0.30350013    0.47556900    0.07210000
opls_142-135    C    0.83670008    0.19648993    0.66776008    0.07210000
opls_547-136    H    0.12972992    0.02851007    0.75467091    0.12230000
opls_547-137    H    0.12923999    0.96479010    0.79847983    0.11890000
opls_547-138    H    0.37025988    0.47151007    0.38860934    0.11940000
opls_547-139    H    0.87027008    0.97148993    0.75467091    0.12230000
opls_547-140    H    0.87076001    0.03520990    0.79847983    0.11890000
opls_547-141    H    0.62974012    0.52848993    0.38860934    0.11940000
opls_547-142    H    0.97148993    0.12972992    0.75467091    0.12230000
opls_547-143    H    0.03520990    0.12923999    0.79847983    0.11890000
opls_547-144    H    0.52848993    0.37025988    0.38860934    0.11940000
opls_547-145    H    0.02851007    0.87027008    0.75467091    0.12230000
opls_547-146    H    0.96479010    0.87076001    0.79847983    0.11890000
opls_547-147    H    0.47151007    0.62974012    0.38860934    0.11940000
opls_547-148    H    0.53522010    0.62923999    0.34480042    0.11890000
opls_547-149    H    0.46477990    0.37076001    0.34480042    0.11890000
opls_547-150    H    0.37076001    0.53522010    0.34480042    0.11890000
opls_547-151    H    0.62923999    0.46477990    0.34480042    0.11890000
opls_146-152    H    0.11848993    0.07233996    0.06812951    0.11710000
opls_146-153    H    0.11127008    0.93356006    0.32963057    0.11970000
opls_146-154    H    0.38151007    0.42767993    0.07516985    0.11710000
opls_146-155    H    0.38874012    0.56644989    0.81367091    0.11970000
opls_146-156    H    0.88152002    0.92766998    0.06812951    0.12170000
opls_146-157    H    0.88872992    0.06643994    0.32963057    0.11970000
opls_146-158    H    0.61848993    0.57232007    0.07516985    0.11710000
opls_146-159    H    0.61125988    0.43355011    0.81367091    0.11970000
opls_146-160    H    0.92766998    0.11848993    0.06812951    0.12170000
opls_146-161    H    0.06643994    0.11127008    0.32963057    0.11970000
opls_146-162    H    0.57232007    0.38151007    0.07516985    0.11710000
opls_146-163    H    0.43355011    0.38874012    0.81367091    0.11980000
opls_146-164    H    0.07233996    0.88152002    0.06812951    0.11580000
opls_146-165    H    0.93356006    0.88872992    0.32963057    0.11970000
opls_146-166    H    0.42767993    0.61848993    0.07516985    0.11710000
opls_146-167    H    0.56644989    0.61125988    0.81367091    0.11970000
opls_146-168    H    0.16290003    0.11568988    0.00856051    0.12140000
opls_146-169    H    0.15712012    0.89068988    0.29246072    0.11610000
opls_146-170    H    0.33709003    0.38432007    0.13476008    0.12400000
opls_146-171    H    0.34289008    0.60933002    0.85084926    0.12050000
opls_146-172    H    0.83709997    0.88431012    0.00856051    0.12140000
opls_146-173    H    0.84287988    0.10931012    0.29246072    0.11600000
opls_146-174    H    0.66290997    0.61567993    0.13476008    0.12390000
opls_146-175    H    0.65710992    0.39066998    0.85084926    0.12050000
opls_146-176    H    0.88431012    0.16290003    0.00856051    0.12140000
opls_146-177    H    0.10931012    0.15712012    0.29246072    0.11610000
opls_146-178    H    0.61567993    0.33709003    0.13476008    0.12390000
opls_146-179    H    0.39066998    0.34289008    0.85084926    0.12050000
opls_146-180    H    0.11568988    0.83709997    0.00856051    0.12140000
opls_146-181    H    0.89068988    0.84287988    0.29246072    0.11600000
opls_146-182    H    0.38432007    0.66290997    0.13476008    0.12390000
opls_146-183    H    0.60933002    0.65710992    0.85084926    0.12050000
opls_146-184    H    0.25344989    0.17152997    0.96063907    0.11660000
opls_146-185    H    0.24652997    0.32848993    0.18270064    0.11660000
opls_146-186    H    0.74655011    0.82847003    0.96063907    0.11660000
opls_146-187    H    0.75347003    0.67152002    0.18270064    0.12000000
opls_146-188    H    0.82847003    0.25344989    0.96063907    0.11670000
opls_146-189    H    0.67152002    0.24652997    0.18270064    0.12000000
opls_146-190    H    0.17152997    0.74655011    0.96063907    0.11660000
opls_146-191    H    0.32848993    0.75347003    0.18270064    0.11660000
opls_146-192    H    0.70790003    0.77976001    0.97452017    0.11500000
opls_146-193    H    0.29209997    0.22023999    0.97452017    0.11500000
opls_146-194    H    0.22023999    0.70790003    0.97452017    0.11500000
opls_146-195    H    0.77976001    0.29209997    0.97452017    0.11500000
opls_146-196    H    0.79212012    0.72022010    0.16881953    0.11500000
opls_144-197    H    0.70665009    0.63985004    0.38777070    0.10920000
opls_144-198    H    0.79336011    0.86014002    0.75554989    0.11020000
opls_168-199    H    0.82252997    0.80048993    0.21036093    0.34370000
opls_168-200    H    0.67748993    0.69948993    0.93298938    0.34380000
opls_146-201    H    0.20787988    0.27977990    0.16881953    0.11430000
opls_144-202    H    0.29334991    0.36015991    0.38777070    0.11100000
opls_144-203    H    0.20663989    0.13985998    0.75554989    0.11020000
opls_168-204    H    0.17747003    0.19951007    0.21036093    0.34370000
opls_168-205    H    0.32251007    0.30051007    0.93298938    0.34370000
opls_146-206    H    0.27977990    0.79212012    0.16881953    0.11500000
opls_144-207    H    0.36015991    0.70665009    0.38777070    0.11100000
opls_144-208    H    0.13985998    0.79336011    0.75554989    0.11020000
opls_168-209    H    0.19951007    0.82252997    0.21036093    0.34370000
opls_168-210    H    0.30051007    0.67748993    0.93298938    0.34370000
opls_146-211    H    0.72022010    0.20787988    0.16881953    0.11430000
opls_144-212    H    0.63985004    0.29334991    0.38777070    0.10920000
opls_144-213    H    0.86014002    0.20663989    0.75554989    0.11020000
opls_168-214    H    0.80048993    0.17747003    0.21036093    0.34370000
opls_168-215    H    0.69948993    0.32251007    0.93298938    0.34380000
opls_542-216    N    0.50047998    0.54972992    0.39715924    -0.37940000
opls_542-217    N    0.49952002    0.45027008    0.39715924    -0.37940000
opls_542-218    N    0.45027008    0.50047998    0.39715924    -0.37940000
opls_542-219    N    0.54972992    0.49952002    0.39715924    -0.37940000
opls_542-220    N    0.04972992    0.99952997    0.74611040    -0.37940000
opls_542-221    N    0.95027008    0.00047003    0.74611040    -0.37930000
opls_542-222    N    0.00047003    0.04972992    0.74611040    -0.37940000
opls_542-223    N    0.99952997    0.95027008    0.74611040    -0.37930000
opls_750-224    N    0.66438995    0.66544989    0.54005096    -0.34280000
opls_750-225    N    0.83561999    0.83452997    0.60326964    -0.34290000
opls_750-226    N    0.33561005    0.33455011    0.54005096    -0.34290000
opls_750-227    N    0.16438001    0.16547003    0.60326964    -0.34290000
opls_750-228    N    0.33455011    0.66438995    0.54005096    -0.34280000
opls_750-229    N    0.16547003    0.83561999    0.60326964    -0.34290000
opls_750-230    N    0.66544989    0.33561005    0.54005096    -0.34290000
opls_750-231    N    0.83452997    0.16438001    0.60326964    -0.34290000
opls_167-232    O    0.22242005    0.81223999    0.25852017    -0.51850000
opls_167-233    O    0.27760010    0.68776996    0.88480042    -0.51950000
opls_167-234    O    0.77757995    0.18776001    0.25852017    -0.51850000
opls_167-235    O    0.72239990    0.31223004    0.88480042    -0.51950000
opls_167-236    O    0.18776001    0.22242005    0.25852017    -0.51850000
opls_167-237    O    0.31223004    0.27760010    0.88480042    -0.51950000
opls_167-238    O    0.81223999    0.77757995    0.25852017    -0.51860000
opls_167-239    O    0.68776996    0.72239990    0.88480042    -0.51940000
Cu2+-240    Cu    0.00000000    0.00000000    0.63742038    0.66360000
Cu2+-241    Cu    0.50000000    0.50000000    0.50585987    0.66350000
