#======================================================================
# Crystal Data Generated By AuToFF
#----------------------------------------------------------------------

data_AuToFF_phase_1

_cell_length_a                         28.5000
_cell_length_b                         28.5000
_cell_length_c                         6.5000
_cell_angle_alpha                      90.00
_cell_angle_beta                       90.00
_cell_angle_gamma                      120.00
_symmetry_space_group_name_H-M_alt     'P 1'
_symmetry_space_group_IT_number        1

loop_
_space_group_symop_operation_xyz
   'x, y, z'

loop_
   _atom_site_label
   _atom_site_type_symbol
   _atom_site_fract_x
   _atom_site_fract_y
   _atom_site_fract_z
   _atom_site_charge
opls_281-0    O    0.29830997    0.56181012    0.00000000    -0.39820000
opls_281-1    O    0.43819007    0.73650013    0.00000000    -0.39820000
opls_281-2    O    0.26350017    0.70169016    0.00000000    -0.39820000
opls_281-3    O    0.70169003    0.43818988    0.00000000    -0.39820000
opls_281-4    O    0.56180993    0.26349987    0.00000000    -0.41370000
opls_281-5    O    0.73650004    0.29831025    0.00000000    -0.39840000
opls_281-6    O    0.29830997    0.56181012    0.50000000    -0.39820000
opls_281-7    O    0.43819007    0.73650013    0.50000000    -0.39820000
opls_281-8    O    0.26350017    0.70169016    0.50000000    -0.39820000
opls_281-9    O    0.70169003    0.43818988    0.50000000    -0.39820000
opls_281-10    O    0.56180993    0.26349987    0.50000000    -0.41370000
opls_281-11    O    0.73650004    0.29831025    0.50000000    -0.39840000
opls_238-12    N    0.19100001    0.60951020    0.00000000    -0.29300000
opls_238-13    N    0.39049005    0.58149027    0.00000000    -0.23120000
opls_238-14    N    0.41851015    0.80899994    0.00000000    -0.29020000
opls_238-15    N    0.80906001    0.39451019    0.00096000    -0.28930000
opls_238-16    N    0.60951016    0.41851014    0.00000000    -0.29500000
opls_238-17    N    0.58523004    0.19258990    0.99966000    -0.30710000
opls_238-18    N    0.19100001    0.60951020    0.50000000    -0.29300000
opls_238-19    N    0.39049005    0.58149027    0.50000000    -0.23120000
opls_238-20    N    0.41851015    0.80899994    0.50000000    -0.29020000
opls_238-21    N    0.80906001    0.39451019    0.50096000    -0.28930000
opls_238-22    N    0.60951016    0.41851014    0.50000000    -0.29500000
opls_238-23    N    0.58523004    0.19258990    0.49966000    -0.30710000
opls_280-24    C    0.31497006    0.61102994    0.00000000    0.20710000
opls_142-25    C    0.22626008    0.59364015    0.00000000    0.10000000
opls_145-26    C    0.27883002    0.63014004    0.00000000    -0.10120000
opls_280-27    C    0.38897000    0.70394000    0.00000000    0.20710000
opls_142-28    C    0.40636018    0.63262001    0.00000000    0.10000000
opls_145-29    C    0.36986019    0.64869020    0.00000000    -0.10120000
opls_280-30    C    0.29605994    0.68503005    0.00000000    0.20710000
opls_142-31    C    0.36738030    0.77374024    0.00000000    0.10000000
opls_145-32    C    0.35130999    0.72117016    0.00000000    -0.10120000
opls_280-33    C    0.68502994    0.38897006    0.00000000    0.20710000
opls_142-34    C    0.77374013    0.40636025    0.00000000    0.09700000
opls_145-35    C    0.72116998    0.36985996    0.00000000    -0.10120000
opls_280-36    C    0.61103000    0.29606000    0.00000000    0.20710000
opls_142-37    C    0.59363982    0.36737999    0.00000000    0.10000000
opls_145-38    C    0.63014001    0.35131020    0.00000000    -0.10120000
opls_280-39    C    0.70394006    0.31496995    0.00000000    0.20710000
opls_142-40    C    0.63261991    0.22626016    0.00000000    0.09700000
opls_145-41    C    0.64869021    0.27883024    0.00000000    -0.10120000
opls_145-42    C    0.58534989    0.44648995    0.00656923    0.19670000
opls_145-43    C    0.61853015    0.50111013    0.01066000    -0.21310000
opls_145-44    C    0.59845009    0.53514018    0.01160000    -0.21240000
opls_716-45    C    0.54441008    0.51390017    0.01069077    0.00540000
opls_716-46    C    0.51160994    0.53953007    0.00654000    0.00540000
opls_145-47    C    0.52412013    0.59109009    0.00161077    -0.20950000
opls_145-48    C    0.48438990    0.60360015    0.99886000    -0.21330000
opls_916-49    C    0.43121011    0.56430022    0.00300000    0.19880000
opls_145-50    C    0.41846983    0.51172001    0.00982000    -0.23610000
opls_716-51    C    0.45816990    0.49980998    0.00875077    0.09770000
opls_136-52    C    0.45544031    0.44730027    0.01072000    -0.24900000
opls_716-53    C    0.51152004    0.45964989    0.00978923    0.07810000
opls_145-54    C    0.53063982    0.42538000    0.00709077    -0.23690000
opls_916-55    C    0.86297020    0.42235023    0.99932923    0.19790000
opls_145-56    C    0.88352982    0.38840000    0.99957077    -0.20820000
opls_145-57    C    0.93748984    0.40760004    0.99824000    -0.20060000
opls_716-58    C    0.97105023    0.46152010    0.99898000    0.03120000
opls_716-59    C    0.95057017    0.49515998    0.00191077    0.07270000
opls_145-60    C    0.89733026    0.47692017    0.00150000    -0.23310000
opls_916-61    C    0.55968016    0.14237014    0.99890000    0.17290000
opls_145-62    C    0.50503007    0.12022015    0.00975077    -0.20820000
opls_145-63    C    0.47166991    0.06600999    0.01552000    -0.21280000
opls_716-64    C    0.49364001    0.03384002    0.01260000    0.01680000
opls_136-65    C    0.56115993    0.01279003    0.00512000    -0.27750000
opls_716-66    C    0.54793996    0.05591993    0.00498923    0.07810000
opls_145-67    C    0.58154992    0.10941985    0.99745077    -0.23680000
opls_716-68    C    0.03283998    0.50155014    0.00910923    0.02380000
opls_145-69    C    0.07217998    0.48943996    0.00965077    -0.20950000
opls_145-70    C    0.12430016    0.52945014    0.00688923    -0.21310000
opls_145-71    C    0.13775027    0.58252018    0.00550000    0.19690000
opls_145-72    C    0.09760022    0.59486008    0.00674000    -0.23280000
opls_716-73    C    0.04611984    0.55486003    0.00572000    0.09770000
opls_136-74    C    0.99608983    0.55712001    0.00244000    -0.27510000
opls_716-75    C    0.46535996    0.96463010    0.01036000    0.01670000
opls_145-76    C    0.41376988    0.92564011    0.00945077    -0.20950000
opls_145-77    C    0.40115996    0.87339010    0.00299077    -0.21320000
opls_916-78    C    0.44042020    0.85945023    0.99926000    0.17470000
opls_145-79    C    0.49305023    0.89923028    0.00197077    -0.23260000
opls_716-80    C    0.50503015    0.95087012    0.00464923    0.05350000
opls_280-81    C    0.31497006    0.61102994    0.50000000    0.20710000
opls_142-82    C    0.22626008    0.59364015    0.50000000    0.10000000
opls_145-83    C    0.27883002    0.63014004    0.50000000    -0.10120000
opls_280-84    C    0.38897000    0.70394000    0.50000000    0.20710000
opls_142-85    C    0.40636018    0.63262001    0.50000000    0.10000000
opls_145-86    C    0.36986019    0.64869020    0.50000000    -0.10120000
opls_280-87    C    0.29605994    0.68503005    0.50000000    0.20710000
opls_142-88    C    0.36738030    0.77374024    0.50000000    0.10000000
opls_145-89    C    0.35130999    0.72117016    0.50000000    -0.10120000
opls_280-90    C    0.68502994    0.38897006    0.50000000    0.20710000
opls_142-91    C    0.77374013    0.40636025    0.50000000    0.09700000
opls_145-92    C    0.72116998    0.36985996    0.50000000    -0.10120000
opls_280-93    C    0.61103000    0.29606000    0.50000000    0.20710000
opls_142-94    C    0.59363982    0.36737999    0.50000000    0.10000000
opls_145-95    C    0.63014001    0.35131020    0.50000000    -0.10120000
opls_280-96    C    0.70394006    0.31496995    0.50000000    0.20710000
opls_142-97    C    0.63261991    0.22626016    0.50000000    0.09700000
opls_145-98    C    0.64869021    0.27883024    0.50000000    -0.10120000
opls_145-99    C    0.58534989    0.44648995    0.50657077    0.19670000
opls_145-100    C    0.61853015    0.50111013    0.51066000    -0.21310000
opls_145-101    C    0.59845009    0.53514018    0.51160000    -0.21230000
opls_716-102    C    0.54441008    0.51390017    0.51068923    0.00540000
opls_716-103    C    0.51160994    0.53953007    0.50654923    0.00540000
opls_145-104    C    0.52412013    0.59109009    0.50160923    -0.20950000
opls_145-105    C    0.48438990    0.60360015    0.49886000    -0.21320000
opls_916-106    C    0.43121011    0.56430022    0.50300000    0.19890000
opls_145-107    C    0.41846983    0.51172001    0.50982000    -0.23610000
opls_716-108    C    0.45816990    0.49980998    0.50874923    0.09770000
opls_136-109    C    0.45544031    0.44730027    0.51072000    -0.24900000
opls_716-110    C    0.51152004    0.45964989    0.50979077    0.07810000
opls_145-111    C    0.53063982    0.42538000    0.50709077    -0.23680000
opls_916-112    C    0.86297020    0.42235023    0.49933077    0.19790000
opls_145-113    C    0.88352982    0.38840000    0.49957077    -0.20820000
opls_145-114    C    0.93748984    0.40760004    0.49824000    -0.20060000
opls_716-115    C    0.97105023    0.46152010    0.49898000    0.03120000
opls_716-116    C    0.95057017    0.49515998    0.50190923    0.07270000
opls_145-117    C    0.89733026    0.47692017    0.50150000    -0.23310000
opls_916-118    C    0.55968016    0.14237014    0.49890000    0.17300000
opls_145-119    C    0.50503007    0.12022015    0.50975077    -0.20820000
opls_145-120    C    0.47166991    0.06600999    0.51552000    -0.21280000
opls_716-121    C    0.49364001    0.03384002    0.51260000    0.01680000
opls_136-122    C    0.56115993    0.01279003    0.50512000    -0.27760000
opls_716-123    C    0.54793996    0.05591993    0.50498923    0.07810000
opls_145-124    C    0.58154992    0.10941985    0.49744923    -0.23680000
opls_716-125    C    0.03283998    0.50155014    0.50911077    0.02380000
opls_145-126    C    0.07217998    0.48943996    0.50964923    -0.20950000
opls_145-127    C    0.12430016    0.52945014    0.50689077    -0.21310000
opls_145-128    C    0.13775027    0.58252018    0.50550000    0.19700000
opls_145-129    C    0.09760022    0.59486008    0.50674000    -0.23280000
opls_716-130    C    0.04611984    0.55486003    0.50572000    0.09770000
opls_136-131    C    0.99608983    0.55712001    0.50244000    -0.27520000
opls_716-132    C    0.46535996    0.96463010    0.51036000    0.01670000
opls_145-133    C    0.41376988    0.92564011    0.50944923    -0.20950000
opls_145-134    C    0.40115996    0.87339010    0.50299077    -0.21330000
opls_916-135    C    0.44042020    0.85945023    0.49926000    0.17470000
opls_145-136    C    0.49305023    0.89923028    0.50197077    -0.23260000
opls_716-137    C    0.50503015    0.95087012    0.50465077    0.05350000
opls_910-138    H    0.21124000    0.65271018    0.00000000    0.24960000
opls_144-139    H    0.21437982    0.55161998    0.00000000    0.11290000
opls_910-140    H    0.34728989    0.55852996    0.00000000    0.24960000
opls_144-141    H    0.44838007    0.66276013    0.00000000    0.11290000
opls_910-142    H    0.44147031    0.78876026    0.00000000    0.24960000
opls_144-143    H    0.33724032    0.78562029    0.00000000    0.11300000
opls_910-144    H    0.78621019    0.35131020    0.00148000    0.23950000
opls_144-145    H    0.78562018    0.44838002    0.00000000    0.11290000
opls_910-146    H    0.65271011    0.44147004    0.00000000    0.24960000
opls_144-147    H    0.55161993    0.33723987    0.00000000    0.11290000
opls_910-148    H    0.56421011    0.21479986    0.99975077    0.24960000
opls_144-149    H    0.66276023    0.21438012    0.00000000    0.11290000
opls_146-150    H    0.65486996    0.51497991    0.01260000    0.23440000
opls_146-151    H    0.62094017    0.57149016    0.01274000    0.23440000
opls_146-152    H    0.55923024    0.61775030    0.99986000    0.23440000
opls_146-153    H    0.49318992    0.63881002    0.99412000    0.23440000
opls_146-154    H    0.38337024    0.48496012    0.01510923    0.23440000
opls_146-155    H    0.50780013    0.38908026    0.00556000    0.23440000
opls_146-156    H    0.43528022    0.05166010    0.02116000    0.23440000
opls_146-157    H    0.61788984    0.12336985    0.99144000    0.23450000
opls_146-158    H    0.06401988    0.45442011    0.01162000    0.23440000
opls_146-159    H    0.15092994    0.52093006    0.00588923    0.23440000
opls_146-160    H    0.38714019    0.93413020    0.01294000    0.23440000
opls_146-161    H    0.36592022    0.84701026    0.00103077    0.23440000
opls_146-162    H    0.52564004    0.88872007    0.00196000    0.04930000
opls_140-163    H    0.43421022    0.42383027    0.86738000    0.10480000
opls_140-164    H    0.43382986    0.42464990    0.15494923    0.10480000
opls_140-165    H    0.58553007    0.01682014    0.14780000    0.10490000
opls_140-166    H    0.58525011    0.01631005    0.86212923    0.10480000
opls_146-167    H    0.48695025    0.14680014    0.01406923    0.04930000
opls_140-168    H    0.99373995    0.57743990    0.85652000    0.10480000
opls_140-169    H    0.99427997    0.57891995    0.14470000    0.10490000
opls_146-170    H    0.85580993    0.34389986    0.00086923    0.04930000
opls_146-171    H    0.95326002    0.37904003    0.99658000    0.04930000
opls_146-172    H    0.88085997    0.50491011    0.00287077    0.04840000
opls_146-173    H    0.10770996    0.63785992    0.00859077    0.04690000
opls_910-174    H    0.21124000    0.65271018    0.50000000    0.24960000
opls_144-175    H    0.21437982    0.55161998    0.50000000    0.11290000
opls_910-176    H    0.34728989    0.55852996    0.50000000    0.24960000
opls_144-177    H    0.44838007    0.66276013    0.50000000    0.11290000
opls_910-178    H    0.44147031    0.78876026    0.50000000    0.24960000
opls_144-179    H    0.33724032    0.78562029    0.50000000    0.11290000
opls_910-180    H    0.78621019    0.35131020    0.50148000    0.23950000
opls_144-181    H    0.78562018    0.44838002    0.50000000    0.11290000
opls_910-182    H    0.65271011    0.44147004    0.50000000    0.24960000
opls_144-183    H    0.55161993    0.33723987    0.50000000    0.11290000
opls_910-184    H    0.56421011    0.21479986    0.49974923    0.24970000
opls_144-185    H    0.66276023    0.21438012    0.50000000    0.11290000
opls_146-186    H    0.65486996    0.51497991    0.51260000    0.23440000
opls_146-187    H    0.62094017    0.57149016    0.51274000    0.23440000
opls_146-188    H    0.55923024    0.61775030    0.49986000    0.23440000
opls_146-189    H    0.49318992    0.63881002    0.49412000    0.23450000
opls_146-190    H    0.38337024    0.48496012    0.51511077    0.23440000
opls_146-191    H    0.50780013    0.38908026    0.50556000    0.23440000
opls_146-192    H    0.43528022    0.05166010    0.52116000    0.23440000
opls_146-193    H    0.61788984    0.12336985    0.49144000    0.23440000
opls_146-194    H    0.06401988    0.45442011    0.51162000    0.23440000
opls_146-195    H    0.15092994    0.52093006    0.50589077    0.23440000
opls_146-196    H    0.38714019    0.93413020    0.51294000    0.23450000
opls_146-197    H    0.36592022    0.84701026    0.50103077    0.23440000
opls_146-198    H    0.52564004    0.88872007    0.50196000    0.04930000
opls_140-199    H    0.43421022    0.42383027    0.36738000    0.10480000
opls_140-200    H    0.43382986    0.42464990    0.65495077    0.10480000
opls_140-201    H    0.58553007    0.01682014    0.64780000    0.10490000
opls_140-202    H    0.58525011    0.01631005    0.36213077    0.10480000
opls_146-203    H    0.48695025    0.14680014    0.51406923    0.04930000
opls_140-204    H    0.99373995    0.57743990    0.35652000    0.10480000
opls_140-205    H    0.99427997    0.57891995    0.64470000    0.10490000
opls_146-206    H    0.85580993    0.34389986    0.50086923    0.04930000
opls_146-207    H    0.95326002    0.37904003    0.49658000    0.04930000
opls_146-208    H    0.88085997    0.50491011    0.50286923    0.04840000
opls_146-209    H    0.10770996    0.63785992    0.50859077    0.04690000
