#======================================================================
# Crystal Data Generated By AuToFF
#----------------------------------------------------------------------

data_AuToFF_phase_1

_cell_length_a                         15.3600
_cell_length_b                         15.3600
_cell_length_c                         6.5700
_cell_angle_alpha                      89.99
_cell_angle_beta                       89.99
_cell_angle_gamma                      59.69
_symmetry_space_group_name_H-M_alt     'P 1'
_symmetry_space_group_IT_number        1

loop_
_space_group_symop_operation_xyz
   'x, y, z'

loop_
   _atom_site_label
   _atom_site_type_symbol
   _atom_site_fract_x
   _atom_site_fract_y
   _atom_site_fract_z
   _atom_site_charge
opls_700-0    C    0.34820987    0.13389964    0.99578995    -0.15070000
opls_231-1    C    0.41637022    0.17110968    0.99575951    0.40190000
opls_700-2    C    0.38157984    0.27656954    0.99584932    -0.13480000
opls_231-3    C    0.27555999    0.34524018    0.99568037    0.39960000
opls_700-4    C    0.20483940    0.31095011    0.99570928    -0.11450000
opls_231-5    C    0.24266950    0.20508001    0.99559056    0.40190000
opls_142-6    C    0.45809982    0.30654975    0.99647032    0.07410000
opls_142-7    C    0.37863002    0.02700993    0.99628006    0.07410000
opls_142-8    C    0.09765943    0.38767024    0.99619939    0.07410000
opls_141-9    C    0.48504992    0.52201972    0.99952968    0.52050000
opls_700-10    C    0.56987016    0.54421963    0.99996043    -0.02660000
opls_145-11    C    0.54229011    0.64662981    0.00014003    -0.05850000
opls_145-12    C    0.67271965    0.47025958    0.99987062    -0.05850000
opls_700-13    C    0.61580026    0.67538987    0.00015982    -0.02660000
opls_700-14    C    0.74778981    0.49711020    0.99989041    -0.02640000
opls_145-15    C    0.71820959    0.59983032    0.00008980    -0.05920000
opls_141-16    C    0.85571010    0.41248985    0.99938965    0.52050000
opls_141-17    C    0.59379998    0.78256991    0.99998021    0.52070000
opls_700-18    C    0.00421988    0.80063999    0.49001979    -0.11450000
opls_231-19    C    0.07090967    0.83972026    0.49001979    0.38430000
opls_700-20    C    0.03404992    0.94572009    0.48996043    -0.10840000
opls_231-21    C    0.92765007    0.01285005    0.48968950    0.26280000
opls_700-22    C    0.85840991    0.97659020    0.48982040    -0.12490000
opls_231-23    C    0.89814939    0.87028044    0.48973973    0.38350000
opls_142-24    C    0.10906964    0.97754035    0.49077017    0.07410000
opls_142-25    C    0.03645997    0.69342976    0.49084018    0.07410000
opls_142-26    C    0.75091972    0.05179001    0.49057991    0.07410000
opls_141-27    C    0.13690009    0.19248989    0.49559056    0.52160000
opls_700-28    C    0.22275982    0.21295004    0.49580061    -0.02530000
opls_145-29    C    0.19669970    0.31490021    0.49582040    -0.05920000
opls_145-30    C    0.32519988    0.13791007    0.49592998    -0.05920000
opls_700-31    C    0.27129952    0.34212035    0.49589954    -0.02810000
opls_700-32    C    0.40130997    0.16325998    0.49600000    -0.02830000
opls_145-33    C    0.37325996    0.26553970    0.49603957    -0.05920000
opls_141-34    C    0.50863023    0.07769997    0.49603044    0.52160000
opls_141-35    C    0.25101973    0.44859000    0.49577930    0.52750000
opls_144-36    H    0.54154943    0.24658025    0.99585997    0.03050000
opls_144-37    H    0.31891979    0.00374975    0.99517047    0.03050000
opls_144-38    H    0.07358976    0.47106973    0.99540944    0.03050000
opls_146-39    H    0.45884941    0.70662045    0.00026941    0.05170000
opls_146-40    H    0.69648991    0.38694007    0.99977930    0.05170000
opls_146-41    H    0.77911991    0.62146993    0.00019939    0.05170000
opls_144-42    H    0.19286957    0.91868019    0.48964992    0.03050000
opls_144-43    H    0.97784947    0.66871036    0.48961035    0.03050000
opls_144-44    H    0.72865986    0.13470991    0.48887062    0.03050000
opls_146-45    H    0.11396984    0.37684028    0.49577017    0.05170000
opls_146-46    H    0.34775993    0.05491031    0.49598021    0.05170000
opls_146-47    H    0.43502959    0.28599005    0.49619026    0.05170000
opls_750-48    N    0.43442967    0.40047974    0.99770928    0.00330000
opls_750-49    N    0.47256996    0.95595995    0.99796043    0.00330000
opls_750-50    N    0.50993962    0.42177996    0.99845967    -0.20900000
opls_750-51    N    0.49373994    0.85899980    0.99849924    -0.20860000
opls_750-52    N    0.02787985    0.36361962    0.99752968    0.00330000
opls_750-53    N    0.93016988    0.43836997    0.99819939    -0.20860000
opls_750-54    N    0.08457963    0.07182022    0.49275038    -0.11570000
opls_750-55    N    0.13073947    0.62282018    0.49294977    -0.11520000
opls_750-56    N    0.16046984    0.09291003    0.49359970    -0.20890000
opls_750-57    N    0.15160977    0.52567978    0.49377930    -0.20860000
opls_750-58    N    0.68162983    0.02693015    0.49310046    -0.11650000
opls_750-59    N    0.58374018    0.10217973    0.49382953    -0.20870000
opls_272-60    O    0.39629991    0.59052970    0.99987976    -0.34230000
opls_272-61    O    0.87757939    0.32357019    0.99982040    -0.33460000
opls_272-62    O    0.66250975    0.80190035    0.00089041    -0.34570000
opls_272-63    O    0.23434008    0.44710966    0.99547945    -0.23120000
opls_272-64    O    0.51838000    0.10945996    0.99559056    -0.22880000
opls_272-65    O    0.18198976    0.16419966    0.99528006    -0.22710000
opls_272-66    O    0.04850000    0.26226976    0.49701065    -0.35130000
opls_272-67    O    0.52897972    0.98901024    0.49784932    -0.35130000
opls_272-68    O    0.32092967    0.46636013    0.49724049    -0.35130000
opls_272-69    O    0.88513979    0.11467957    0.48933942    -0.23060000
opls_272-70    O    0.17270984    0.77959010    0.49007002    -0.22860000
opls_272-71    O    0.83912015    0.82798988    0.48938965    -0.22860000
