#======================================================================
# Crystal Data Generated By AuToFF
#----------------------------------------------------------------------

data_AuToFF_phase_1

_cell_length_a                         14.2000
_cell_length_b                         26.2000
_cell_length_c                         26.2000
_cell_angle_alpha                      120.00
_cell_angle_beta                       90.00
_cell_angle_gamma                      90.00
_symmetry_space_group_name_H-M_alt     'P 1'
_symmetry_space_group_IT_number        1

loop_
_space_group_symop_operation_xyz
   'x, y, z'

loop_
   _atom_site_label
   _atom_site_type_symbol
   _atom_site_fract_x
   _atom_site_fract_y
   _atom_site_fract_z
   _atom_site_charge
F2_Sb3+3-0    Sb    0.81700000    0.34280001    0.65060003    0.35590000
F2_Sb3+3-1    Sb    0.75325000    0.66969995    0.31269990    0.35590000
F2_Sb3+3-2    Sb    0.31700000    0.34280001    0.65060003    0.35590000
F2_Sb3+3-3    Sb    0.25325000    0.66969995    0.31269990    0.35590000
opls_145-4    C    0.88865000    0.38199992    0.73509985    -0.08490000
opls_145-5    C    0.87395000    0.44209982    0.77609964    -0.05120000
opls_145-6    C    0.92955000    0.47059986    0.82759972    -0.07640000
opls_700-7    C    0.00035000    0.43909982    0.83829965    0.07520000
opls_145-8    C    0.01265000    0.37839991    0.79819981    -0.07680000
opls_145-9    C    0.95670000    0.34999994    0.74699987    -0.05120000
opls_145-10    C    0.90660000    0.26550000    0.60609999    -0.08490000
opls_145-11    C    0.86735000    0.21189991    0.56229983    -0.05120000
opls_145-12    C    0.92510000    0.16139987    0.53249975    -0.07630000
opls_700-13    C    0.02215000    0.16419989    0.54639978    0.06800000
opls_145-14    C    0.06180000    0.21820004    0.58950007    -0.07690000
opls_145-15    C    0.00435000    0.26869994    0.61869989    -0.05090000
opls_145-16    C    0.90755000    0.38739994    0.61869989    -0.08500000
opls_145-17    C    0.89915000    0.37499984    0.55999968    -0.05120000
opls_145-18    C    0.96315000    0.40029991    0.53759982    -0.07620000
opls_700-19    C    0.03610000    0.43799988    0.57399976    0.07380000
opls_145-20    C    0.04380000    0.45049998    0.63269997    -0.07670000
opls_145-21    C    0.97990000    0.42529989    0.65499979    -0.05120000
opls_142-22    C    0.10765000    0.46269988    0.55129977    0.01680000
opls_145-23    C    0.37190000    0.00709989    0.50789978    -0.08870000
opls_145-24    C    0.31110000    0.05629986    0.53439971    -0.08870000
opls_145-25    C    0.22570000    0.05669984    0.50669969    0.23050000
opls_145-26    C    0.20145000    0.00709995    0.45189990    -0.08870000
opls_145-27    C    0.26220000    0.95789998    0.42539997    -0.08870000
opls_145-28    C    0.34765000    0.95750000    0.45310000    0.23040000
opls_142-29    C    0.08035000    0.11010000    0.51630001    0.01930000
opls_142-30    C    0.49300000    0.90420004    0.44340007    0.01930000
opls_700-31    C    0.55085000    0.84989999    0.41359999    0.06820000
opls_145-32    C    0.66510000    0.74780000    0.35540001    -0.08490000
opls_145-33    C    0.70500000    0.80159988    0.39829977    -0.05120000
opls_145-34    C    0.64790000    0.85240001    0.42750003    -0.07670000
opls_145-35    C    0.51055000    0.79570005    0.37140010    -0.07690000
opls_145-36    C    0.56735000    0.74479986    0.34289972    -0.05090000
opls_145-37    C    0.67940000    0.62809997    0.22889995    -0.08490000
opls_145-38    C    0.69065000    0.56709995    0.19029990    -0.05120000
opls_145-39    C    0.63380000    0.53760005    0.13940009    -0.07640000
opls_700-40    C    0.56510000    0.56899992    0.12699985    0.07330000
opls_145-41    C    0.55620000    0.63049996    0.16469993    -0.07680000
opls_145-42    C    0.61345000    0.65990000    0.21520000    -0.05120000
opls_145-43    C    0.66245000    0.62869996    0.34829992    -0.08500000
opls_145-44    C    0.58335000    0.59550002    0.31600005    -0.05120000
opls_145-45    C    0.51940000    0.57319990    0.34109979    -0.07680000
opls_700-46    C    0.53390000    0.58420006    0.39910013    0.06920000
opls_145-47    C    0.61335000    0.61720000    0.43140000    -0.07640000
opls_145-48    C    0.67745000    0.63959986    0.40609973    -0.05120000
opls_145-49    C    0.32725000    0.52590004    0.48390008    -0.08870000
opls_145-50    C    0.25735000    0.50589991    0.50799983    -0.09010000
opls_145-51    C    0.17745000    0.47460004    0.47400007    0.23050000
opls_145-52    C    0.16870000    0.46370005    0.41580009    -0.09300000
opls_145-53    C    0.23865000    0.48379995    0.39169991    -0.08870000
opls_145-54    C    0.31830000    0.51489998    0.42539997    0.23040000
opls_142-55    C    0.46515000    0.56339995    0.42719989    0.01630000
opls_145-56    C    0.27310000    0.56389996    0.02549993    -0.08870000
opls_145-57    C    0.35350000    0.53229990    0.02619980    0.22960000
opls_145-58    C    0.36225000    0.47189984    0.98349969    -0.08870000
opls_142-59    C    0.49825000    0.53629996    0.07779992    0.01920000
opls_145-60    C    0.20225000    0.53569984    0.98249968    -0.08860000
opls_145-61    C    0.29145000    0.44369992    0.94039983    -0.08870000
opls_145-62    C    0.21105000    0.47519998    0.93969996    0.23090000
opls_142-63    C    0.06610000    0.47129997    0.88829993    0.01920000
opls_145-64    C    0.38865000    0.38199992    0.73509985    -0.08490000
opls_145-65    C    0.37395000    0.44209982    0.77609964    -0.05120000
opls_145-66    C    0.42955000    0.47059986    0.82759972    -0.07640000
opls_700-67    C    0.50035000    0.43909982    0.83829965    0.07520000
opls_145-68    C    0.51265000    0.37839991    0.79819981    -0.07680000
opls_145-69    C    0.45670000    0.34999994    0.74699987    -0.05120000
opls_145-70    C    0.40660000    0.26550000    0.60609999    -0.08490000
opls_145-71    C    0.36735000    0.21189991    0.56229983    -0.05120000
opls_145-72    C    0.42510000    0.16139987    0.53249975    -0.07630000
opls_700-73    C    0.52215000    0.16419989    0.54639978    0.06800000
opls_145-74    C    0.56180000    0.21820004    0.58950007    -0.07690000
opls_145-75    C    0.50435000    0.26869994    0.61869989    -0.05090000
opls_145-76    C    0.40755000    0.38739994    0.61869989    -0.08500000
opls_145-77    C    0.39915000    0.37499984    0.55999968    -0.05120000
opls_145-78    C    0.46315000    0.40029991    0.53759982    -0.07620000
opls_700-79    C    0.53610000    0.43799988    0.57399976    0.07380000
opls_145-80    C    0.54380000    0.45049998    0.63269997    -0.07670000
opls_145-81    C    0.47990000    0.42529989    0.65499979    -0.05120000
opls_142-82    C    0.60765000    0.46269988    0.55129977    0.01680000
opls_145-83    C    0.87190000    0.00709989    0.50789978    -0.08870000
opls_145-84    C    0.81110000    0.05629986    0.53439971    -0.08880000
opls_145-85    C    0.72570000    0.05669984    0.50669969    0.23050000
opls_145-86    C    0.70145000    0.00709995    0.45189990    -0.08870000
opls_145-87    C    0.76220000    0.95789998    0.42539997    -0.08870000
opls_145-88    C    0.84765000    0.95750000    0.45310000    0.23040000
opls_142-89    C    0.58035000    0.11010000    0.51630001    0.01930000
opls_142-90    C    0.99300000    0.90420004    0.44340007    0.01930000
opls_700-91    C    0.05085000    0.84989999    0.41359999    0.06820000
opls_145-92    C    0.16510000    0.74780000    0.35540001    -0.08490000
opls_145-93    C    0.20500000    0.80159988    0.39829977    -0.05120000
opls_145-94    C    0.14790000    0.85240001    0.42750003    -0.07670000
opls_145-95    C    0.01055000    0.79570005    0.37140010    -0.07690000
opls_145-96    C    0.06735000    0.74479986    0.34289972    -0.05090000
opls_145-97    C    0.17940000    0.62809997    0.22889995    -0.08490000
opls_145-98    C    0.19065000    0.56709995    0.19029990    -0.05120000
opls_145-99    C    0.13380000    0.53760005    0.13940009    -0.07640000
opls_700-100    C    0.06510000    0.56899992    0.12699985    0.07330000
opls_145-101    C    0.05620000    0.63049996    0.16469993    -0.07680000
opls_145-102    C    0.11345000    0.65990000    0.21520000    -0.05120000
opls_145-103    C    0.16245000    0.62869996    0.34829992    -0.08500000
opls_145-104    C    0.08335000    0.59550002    0.31600005    -0.05120000
opls_145-105    C    0.01940000    0.57319990    0.34109979    -0.07680000
opls_700-106    C    0.03390000    0.58420006    0.39910013    0.06920000
opls_145-107    C    0.11335000    0.61720000    0.43140000    -0.07640000
opls_145-108    C    0.17745000    0.63959986    0.40609973    -0.05120000
opls_145-109    C    0.82725000    0.52590004    0.48390008    -0.08870000
opls_145-110    C    0.75735000    0.50589991    0.50799983    -0.09010000
opls_145-111    C    0.67745000    0.47460004    0.47400007    0.23030000
opls_145-112    C    0.66870000    0.46370005    0.41580009    -0.09300000
opls_145-113    C    0.73865000    0.48379995    0.39169991    -0.08870000
opls_145-114    C    0.81830000    0.51489998    0.42539997    0.23040000
opls_142-115    C    0.96515000    0.56339995    0.42719989    0.01630000
opls_145-116    C    0.77310000    0.56389996    0.02549993    -0.08870000
opls_145-117    C    0.85350000    0.53229990    0.02619980    0.22960000
opls_145-118    C    0.86225000    0.47189984    0.98349969    -0.08870000
opls_142-119    C    0.99825000    0.53629996    0.07779992    0.01920000
opls_145-120    C    0.70225000    0.53569984    0.98249968    -0.08860000
opls_145-121    C    0.79145000    0.44369992    0.94039983    -0.08880000
opls_145-122    C    0.71105000    0.47519998    0.93969996    0.23090000
opls_142-123    C    0.56610000    0.47129997    0.88829993    0.01920000
opls_750-124    N    0.10590000    0.45229990    0.49709981    -0.25990000
opls_750-125    N    0.40750000    0.90599994    0.42519988    -0.24690000
opls_750-126    N    0.16570000    0.10819992    0.53469985    -0.25100000
opls_750-127    N    0.38840000    0.53519995    0.39959991    -0.26030000
opls_750-128    N    0.42355000    0.56229992    0.07169984    -0.25300000
opls_750-129    N    0.14155000    0.44549987    0.89379974    -0.26030000
opls_750-130    N    0.60590000    0.45229990    0.49709981    -0.25990000
opls_750-131    N    0.90750000    0.90599994    0.42519988    -0.24700000
opls_750-132    N    0.66570000    0.10819992    0.53469985    -0.25090000
opls_750-133    N    0.88840000    0.53519995    0.39959991    -0.26030000
opls_750-134    N    0.92355000    0.56229992    0.07169984    -0.25300000
opls_750-135    N    0.64155000    0.44549987    0.89379974    -0.26030000
opls_146-136    H    0.81711972    0.46776988    0.76771000    0.05090000
opls_146-137    H    0.91749014    0.51919978    0.86077972    0.05090000
opls_146-138    H    0.06788028    0.35230985    0.80721970    0.05090000
opls_146-139    H    0.96664014    0.30086983    0.71509004    0.05090000
opls_146-140    H    0.78933028    0.20939021    0.55103004    0.05090000
opls_146-141    H    0.89370986    0.11800000    0.49699007    0.05090000
opls_146-142    H    0.13993028    0.22082993    0.60054994    0.05090000
opls_146-143    H    0.03633028    0.31261005    0.65276972    0.05090000
opls_146-144    H    0.84080986    0.34460010    0.53063988    0.05090000
opls_146-145    H    0.95629014    0.39046011    0.49016984    0.05090000
opls_146-146    H    0.10179014    0.48104998    0.66229996    0.05090000
opls_146-147    H    0.98675986    0.43560987    0.70258005    0.05090000
opls_144-148    H    0.16650000    0.49174988    0.58140968    0.03000000
opls_146-149    H    0.44046972    0.00735020    0.53065002    0.05090000
opls_146-150    H    0.33056972    0.09626013    0.57855995    0.05090000
opls_146-151    H    0.13286972    0.00688000    0.42916993    0.05090000
opls_146-152    H    0.24269014    0.91793993    0.38126001    0.05090000
opls_144-153    H    0.04965986    0.06957979    0.47640996    0.03000000
opls_144-154    H    0.52410986    0.94492999    0.48285997    0.03000000
opls_146-155    H    0.78310986    0.80401997    0.40933994    0.05090000
opls_146-156    H    0.68044014    0.89565982    0.46249979    0.05090000
opls_146-157    H    0.43238028    0.79319983    0.36047981    0.05090000
opls_146-158    H    0.53410986    0.70100995    0.30959014    0.05090000
opls_146-159    H    0.74568028    0.54149022    0.20012014    0.05090000
opls_146-160    H    0.64319014    0.48828991    0.10813019    0.05090000
opls_146-161    H    0.50263028    0.65641981    0.15429000    0.05090000
opls_146-162    H    0.60636972    0.70960977    0.24507985    0.05090000
opls_146-163    H    0.57095000    0.58659975    0.26925981    0.05090000
opls_146-164    H    0.45600000    0.54630003    0.31462983    0.05090000
opls_146-165    H    0.62591972    0.62583973    0.47803976    0.05090000
opls_146-166    H    0.74110000    0.66639998    0.43231980    0.05090000
opls_146-167    H    0.39104014    0.55094992    0.51150976    0.05090000
opls_146-168    H    0.26464014    0.51479004    0.55509000    0.05090000
opls_146-169    H    0.10505000    0.43861013    0.38805996    0.05090000
opls_146-170    H    0.23128028    0.47502006    0.34465997    0.05090000
opls_144-171    H    0.47994014    0.57230989    0.47371977    0.03000000
opls_146-172    H    0.26513028    0.61253981    0.05983992    0.05090000
opls_146-173    H    0.42644014    0.44593981    0.98383993    0.05090000
opls_144-174    H    0.51128028    0.48782989    0.04453000    0.03000000
opls_146-175    H    0.13795000    0.56160980    0.98220968    0.05090000
opls_146-176    H    0.29884014    0.39512004    0.90576984    0.05090000
opls_144-177    H    0.05038028    0.51918000    0.92229969    0.03000000
opls_146-178    H    0.31711972    0.46776988    0.76771000    0.05090000
opls_146-179    H    0.41749014    0.51919978    0.86077972    0.05090000
opls_146-180    H    0.56788028    0.35230985    0.80721970    0.05090000
opls_146-181    H    0.46664014    0.30086983    0.71509004    0.05090000
opls_146-182    H    0.28933028    0.20939021    0.55103004    0.05090000
opls_146-183    H    0.39370986    0.11800000    0.49699007    0.05090000
opls_146-184    H    0.63993028    0.22082993    0.60054994    0.05090000
opls_146-185    H    0.53633028    0.31261005    0.65276972    0.05090000
opls_146-186    H    0.34080986    0.34460010    0.53063988    0.05090000
opls_146-187    H    0.45628028    0.39046011    0.49016984    0.05090000
opls_146-188    H    0.60179014    0.48104998    0.66229996    0.05090000
opls_146-189    H    0.48675986    0.43560987    0.70258005    0.05090000
opls_144-190    H    0.66650000    0.49174988    0.58140968    0.03000000
opls_146-191    H    0.94046972    0.00735020    0.53065002    0.05090000
opls_146-192    H    0.83056972    0.09626013    0.57855995    0.05090000
opls_146-193    H    0.63286972    0.00688000    0.42916993    0.05090000
opls_146-194    H    0.74269014    0.91793993    0.38126001    0.05090000
opls_144-195    H    0.54965986    0.06957979    0.47640996    0.03000000
opls_144-196    H    0.02410986    0.94492999    0.48285997    0.03000000
opls_146-197    H    0.28310986    0.80401997    0.40933994    0.05090000
opls_146-198    H    0.18044014    0.89565982    0.46249979    0.05090000
opls_146-199    H    0.93238028    0.79319983    0.36047981    0.05090000
opls_146-200    H    0.03410986    0.70100995    0.30959014    0.05090000
opls_146-201    H    0.24568028    0.54149022    0.20012014    0.05090000
opls_146-202    H    0.14319014    0.48828991    0.10813019    0.05090000
opls_146-203    H    0.00263028    0.65641981    0.15429000    0.05090000
opls_146-204    H    0.10636972    0.70960977    0.24507985    0.05090000
opls_146-205    H    0.07095000    0.58659975    0.26925981    0.05090000
opls_146-206    H    0.95600000    0.54630003    0.31462983    0.05090000
opls_146-207    H    0.12591972    0.62583973    0.47803976    0.05090000
opls_146-208    H    0.24110000    0.66639998    0.43231980    0.05090000
opls_146-209    H    0.89104014    0.55094992    0.51150976    0.05090000
opls_146-210    H    0.76464014    0.51479004    0.55509000    0.05090000
opls_146-211    H    0.60505000    0.43861013    0.38805996    0.05090000
opls_146-212    H    0.73128028    0.47502006    0.34465997    0.05090000
opls_144-213    H    0.97994014    0.57230989    0.47371977    0.03000000
opls_146-214    H    0.76513028    0.61253981    0.05983992    0.05090000
opls_146-215    H    0.92644014    0.44593981    0.98383993    0.05090000
opls_144-216    H    0.01128028    0.48782989    0.04453000    0.03000000
opls_146-217    H    0.63795000    0.56160980    0.98220968    0.05090000
opls_146-218    H    0.79885000    0.39512004    0.90576984    0.05090000
opls_144-219    H    0.55038028    0.51918000    0.92229969    0.03000000
