#======================================================================
# Crystal Data Generated By AuToFF
#----------------------------------------------------------------------

data_AuToFF_phase_1

_cell_length_a                         26.3287
_cell_length_b                         26.3287
_cell_length_c                         4.1213
_cell_angle_alpha                      90.00
_cell_angle_beta                       90.00
_cell_angle_gamma                      120.00
_symmetry_space_group_name_H-M_alt     'P 1'
_symmetry_space_group_IT_number        1

loop_
_space_group_symop_operation_xyz
   'x, y, z'

loop_
   _atom_site_label
   _atom_site_type_symbol
   _atom_site_fract_x
   _atom_site_fract_y
   _atom_site_fract_z
   _atom_site_charge
opls_145-0    C    0.60866019    0.32279008    0.58911023    0.03070000
opls_145-1    C    0.47240007    0.32887000    0.46530949    0.17800000
opls_145-2    C    0.45791994    0.36919003    0.33894888    -0.23070000
opls_145-3    C    0.40066010    0.35970023    0.37022056    0.20920000
opls_145-4    C    0.35846016    0.30987022    0.53403052    -0.20410000
opls_700-5    C    0.37209986    0.26848007    0.66036930    -0.12190000
opls_145-6    C    0.42937017    0.27816021    0.62119962    -0.21220000
opls_145-7    C    0.34214992    0.48044017    0.13072089    -0.11310000
opls_700-8    C    0.39343004    0.48658016    0.98912964    0.06790000
opls_145-9    C    0.42774022    0.53551022    0.79297066    -0.11410000
opls_145-10    C    0.41190009    0.57840029    0.74553903    -0.11710000
opls_700-11    C    0.36158993    0.57342996    0.89579016    0.07540000
opls_145-12    C    0.32659995    0.52352013    0.08634897    -0.11590000
opls_142-13    C    0.41300996    0.44396991    0.05655982    0.07700000
opls_700-14    C    0.34702013    0.62116009    0.86725062    0.07560000
opls_166-15    C    0.61897998    0.27544984    0.59768034    0.15440000
opls_145-16    C    0.39185991    0.68020009    0.86477082    -0.15950000
opls_725-17    C    0.78352006    0.11046992    0.85325989    0.72680000
opls_145-18    C    0.67721007    0.28586985    0.58911023    0.03070000
opls_145-19    C    0.67112988    0.14352985    0.46530949    0.17800000
opls_145-20    C    0.63080981    0.08872995    0.33894888    -0.23070000
opls_145-21    C    0.64029977    0.04095991    0.37022056    0.20920000
opls_145-22    C    0.69013009    0.04859017    0.53403052    -0.20410000
opls_700-23    C    0.73151991    0.10361988    0.66036930    -0.12190000
opls_145-24    C    0.72184015    0.15121011    0.62119962    -0.21220000
opls_145-25    C    0.51956020    0.86171020    0.13072089    -0.11310000
opls_700-26    C    0.51342005    0.90685013    0.98912964    0.06790000
opls_145-27    C    0.46448997    0.89222992    0.79297066    -0.11410000
opls_145-28    C    0.42159984    0.83349999    0.74553903    -0.11710000
opls_700-29    C    0.42657006    0.78816007    0.89579016    0.07540000
opls_145-30    C    0.47648002    0.80308026    0.08634897    -0.11590000
opls_142-31    C    0.55603015    0.96903995    0.05655982    0.07700000
opls_700-32    C    0.37884010    0.72586017    0.86725062    0.07560000
opls_166-33    C    0.72455004    0.34353011    0.59768034    0.15440000
opls_145-34    C    0.31980017    0.71166011    0.86477082    -0.15950000
opls_725-35    C    0.88952993    0.67305007    0.85325989    0.72680000
opls_145-36    C    0.71413011    0.39134006    0.58911023    0.03070000
opls_145-37    C    0.85647005    0.52760016    0.46530949    0.17800000
opls_145-38    C    0.91126987    0.54208002    0.33894888    -0.23070000
opls_145-39    C    0.95903974    0.59933986    0.37022056    0.20920000
opls_145-40    C    0.95140997    0.64154005    0.53403052    -0.20410000
opls_700-41    C    0.89637985    0.62790005    0.66036930    -0.12190000
opls_145-42    C    0.84878990    0.57063012    0.62119962    -0.21220000
opls_145-43    C    0.13829010    0.65785007    0.13072089    -0.11310000
opls_700-44    C    0.09315013    0.60657015    0.98912964    0.06790000
opls_145-45    C    0.10777003    0.57226029    0.79297066    -0.11410000
opls_145-46    C    0.16649992    0.58810016    0.74553903    -0.11710000
opls_700-47    C    0.21184002    0.63840997    0.89579016    0.07540000
opls_145-48    C    0.19691986    0.67340005    0.08634897    -0.11590000
opls_142-49    C    0.03095989    0.58699014    0.05655982    0.07700000
opls_700-50    C    0.27413999    0.65298018    0.86725062    0.07560000
opls_166-51    C    0.65646998    0.38102005    0.59768034    0.15440000
opls_145-52    C    0.28834013    0.60814023    0.86477082    -0.15950000
opls_725-53    C    0.32695001    0.21648001    0.85325989    0.72680000
opls_750-54    N    0.54878005    0.30973996    0.58777085    -0.12650000
opls_750-55    N    0.53211012    0.34224992    0.45125082    -0.12310000
opls_750-56    N    0.38472977    0.40173990    0.26353092    -0.31680000
opls_750-57    N    0.69025997    0.23904011    0.58777085    -0.12650000
opls_750-58    N    0.65775007    0.18986006    0.45125082    -0.12310000
opls_750-59    N    0.59825987    0.98299002    0.26353092    -0.31680000
opls_750-60    N    0.76095998    0.45121993    0.58777085    -0.12650000
opls_750-61    N    0.81014019    0.46789002    0.45125082    -0.12310000
opls_750-62    N    0.01700998    0.61527008    0.26353092    -0.31680000
opls_167-63    O    0.57025029    0.21902021    0.63264989    -0.48020000
opls_167-64    O    0.78097992    0.35123010    0.63264989    -0.48020000
opls_167-65    O    0.64877001    0.42975012    0.63264989    -0.48020000
opls_726-66    F    0.80108026    0.15661023    0.06906073    -0.21560000
opls_726-67    F    0.76644014    0.05970005    0.02986922    -0.21360000
opls_726-68    F    0.82945980    0.12077985    0.65300997    -0.20490000
opls_726-69    F    0.84338993    0.64447014    0.06906073    -0.21560000
opls_726-70    F    0.94029996    0.70674022    0.02986922    -0.21360000
opls_726-71    F    0.87922009    0.70868002    0.65300997    -0.20490000
opls_726-72    F    0.35553002    0.19892006    0.06906073    -0.21560000
opls_726-73    F    0.29326012    0.23356016    0.02986922    -0.21360000
opls_726-74    F    0.29132012    0.17054013    0.65300997    -0.20490000
opls_146-75    H    0.49230018    0.40860003    0.22832116    0.13240000
opls_146-76    H    0.31443005    0.30310000    0.55963895    0.12340000
opls_146-77    H    0.44093018    0.24678001    0.71612113    0.12440000
opls_146-78    H    0.31513999    0.44311996    0.28474025    0.12870000
opls_146-79    H    0.46713011    0.54078010    0.67820105    0.13110000
opls_146-80    H    0.43892999    0.61530999    0.58959066    0.12780000
opls_146-81    H    0.28846010    0.51876997    0.21313906    0.12930000
opls_144-82    H    0.45181017    0.44937004    0.93468080    0.11100000
opls_146-83    H    0.43714979    0.69069992    0.87033946    0.13250000
opls_168-84    H    0.81044993    0.38973007    0.73636959    0.33320000
opls_146-85    H    0.59140010    0.08369998    0.22832116    0.13240000
opls_146-86    H    0.69690006    0.01133005    0.55963895    0.12340000
opls_146-87    H    0.75321990    0.19415016    0.71612113    0.12440000
opls_146-88    H    0.55688007    0.87202013    0.28474025    0.12870000
opls_146-89    H    0.45922016    0.92635032    0.67820105    0.13110000
opls_146-90    H    0.38469031    0.82362030    0.58959066    0.12780000
opls_146-91    H    0.48122998    0.76969009    0.21313906    0.12970000
opls_144-92    H    0.55063006    0.00244021    0.93468080    0.11100000
opls_146-93    H    0.30930018    0.74645021    0.87033946    0.13250000
opls_168-94    H    0.61026995    0.42071994    0.73636959    0.33320000
opls_146-95    H    0.91630010    0.50769999    0.22832116    0.13240000
opls_146-96    H    0.98866989    0.68556996    0.55963895    0.12340000
opls_146-97    H    0.80585014    0.55907026    0.71612113    0.12550000
opls_146-98    H    0.12797994    0.68485991    0.28474025    0.12870000
opls_146-99    H    0.07364995    0.53287003    0.67820105    0.13110000
opls_146-100    H    0.17637991    0.56107015    0.58959066    0.12780000
opls_146-101    H    0.23030992    0.71153995    0.21313906    0.12930000
opls_144-102    H    0.99755998    0.54819019    0.93468080    0.11100000
opls_146-103    H    0.25355003    0.56284987    0.87033946    0.13250000
opls_168-104    H    0.57928012    0.18954999    0.73636959    0.33320000
