#======================================================================
# Crystal Data Generated By AuToFF
#----------------------------------------------------------------------

data_AuToFF_phase_1

_cell_length_a                         22.4674
_cell_length_b                         16.3829
_cell_length_c                         4.2789
_cell_angle_alpha                      90.00
_cell_angle_beta                       83.53
_cell_angle_gamma                      90.00
_symmetry_space_group_name_H-M_alt     'P 1'
_symmetry_space_group_IT_number        1

loop_
_space_group_symop_operation_xyz
   'x, y, z'

loop_
   _atom_site_label
   _atom_site_type_symbol
   _atom_site_fract_x
   _atom_site_fract_y
   _atom_site_fract_z
   _atom_site_charge
opls_145-0    C    0.21193011    0.56913977    0.45110980    -0.23930000
opls_145-1    C    0.25199022    0.56970011    0.20328012    0.00700000
opls_142-2    C    0.27826023    0.64191016    0.09115947    0.08230000
opls_145-3    C    0.35372029    0.69934017    0.74567876    0.15650000
opls_145-4    C    0.36015021    0.76887975    0.88787935    -0.24100000
opls_145-5    C    0.40673008    0.81642994    0.79739961    -0.24090000
opls_916-6    C    0.44719019    0.79524993    0.56497094    0.12870000
opls_145-7    C    0.43784007    0.72872019    0.41085973    -0.24000000
opls_145-8    C    0.39160005    0.68127987    0.50134888    -0.24000000
opls_145-9    C    0.45357006    0.96022011    0.41517098    -0.24090000
opls_145-10    C    0.71193011    0.06913977    0.45110980    -0.23930000
opls_145-11    C    0.75199022    0.06970011    0.20328012    0.00700000
opls_142-12    C    0.77826023    0.14191016    0.09115947    0.08230000
opls_145-13    C    0.85372029    0.19934017    0.74567876    0.15650000
opls_145-14    C    0.86015021    0.26887975    0.88787935    -0.24100000
opls_145-15    C    0.90673008    0.31642994    0.79739961    -0.24090000
opls_916-16    C    0.94719019    0.29524993    0.56497094    0.12870000
opls_145-17    C    0.93784007    0.22872019    0.41085973    -0.24000000
opls_145-18    C    0.89160005    0.18127987    0.50134888    -0.24000000
opls_145-19    C    0.95357006    0.46022011    0.41517098    -0.24090000
opls_145-20    C    0.78806989    0.56913977    0.54889020    -0.23930000
opls_145-21    C    0.74801022    0.56970011    0.79671988    0.00700000
opls_142-22    C    0.72174022    0.64191016    0.90884053    0.08230000
opls_145-23    C    0.64628021    0.69934017    0.25431889    0.15650000
opls_145-24    C    0.63984979    0.76887975    0.11212065    -0.24100000
opls_145-25    C    0.59326992    0.81642994    0.20260039    -0.24090000
opls_916-26    C    0.55281025    0.79524993    0.43502906    0.12870000
opls_145-27    C    0.56215993    0.72872019    0.58914027    -0.24000000
opls_145-28    C    0.60840000    0.68127987    0.49864877    -0.24000000
opls_145-29    C    0.54642994    0.96022011    0.58482902    -0.24090000
opls_145-30    C    0.28806989    0.06913977    0.54889020    -0.23930000
opls_145-31    C    0.24801022    0.06970011    0.79671988    0.00700000
opls_142-32    C    0.22174022    0.14191016    0.90884053    0.08230000
opls_145-33    C    0.14628021    0.19934017    0.25431889    0.15650000
opls_145-34    C    0.13984979    0.26887975    0.11212065    -0.24100000
opls_145-35    C    0.09326992    0.31642994    0.20260039    -0.24090000
opls_916-36    C    0.05281025    0.29524993    0.43502906    0.12870000
opls_145-37    C    0.06215993    0.22872019    0.58914027    -0.24000000
opls_145-38    C    0.10840000    0.18127987    0.49864877    -0.24000000
opls_145-39    C    0.04642994    0.46022011    0.58482902    -0.24090000
opls_145-40    C    0.78806989    0.43086023    0.54889020    -0.23930000
opls_145-41    C    0.74801022    0.43029989    0.79671988    0.00700000
opls_142-42    C    0.72174022    0.35808984    0.90884053    0.08230000
opls_145-43    C    0.64628021    0.30065983    0.25431889    0.15650000
opls_145-44    C    0.63984979    0.23112025    0.11212065    -0.24100000
opls_145-45    C    0.59326992    0.18357006    0.20260039    -0.24090000
opls_916-46    C    0.55281025    0.20475007    0.43502906    0.12870000
opls_145-47    C    0.56215993    0.27127981    0.58914027    -0.24000000
opls_145-48    C    0.60840000    0.31872013    0.49864877    -0.24000000
opls_145-49    C    0.54642994    0.03977989    0.58482902    -0.24090000
opls_145-50    C    0.28806989    0.93086023    0.54889020    -0.23930000
opls_145-51    C    0.24801022    0.93029989    0.79671988    0.00700000
opls_142-52    C    0.22174022    0.85808984    0.90884053    0.08230000
opls_145-53    C    0.14628021    0.80065983    0.25431889    0.15650000
opls_145-54    C    0.13984979    0.73112025    0.11212065    -0.24100000
opls_145-55    C    0.09326992    0.68357006    0.20260039    -0.24090000
opls_916-56    C    0.05281025    0.70475007    0.43502906    0.12870000
opls_145-57    C    0.06215993    0.77127981    0.58914027    -0.24000000
opls_145-58    C    0.10840000    0.81872013    0.49864877    -0.24000000
opls_145-59    C    0.04642994    0.53977989    0.58482902    -0.24090000
opls_145-60    C    0.21193011    0.43086023    0.45110980    -0.23930000
opls_145-61    C    0.25199022    0.43029989    0.20328012    0.00700000
opls_142-62    C    0.27826023    0.35808984    0.09115947    0.08230000
opls_145-63    C    0.35372029    0.30065983    0.74567876    0.15650000
opls_145-64    C    0.36015021    0.23112025    0.88787935    -0.24100000
opls_145-65    C    0.40673008    0.18357006    0.79739961    -0.24090000
opls_916-66    C    0.44719019    0.20475007    0.56497094    0.12880000
opls_145-67    C    0.43784007    0.27127981    0.41085973    -0.24000000
opls_145-68    C    0.39160005    0.31872013    0.50134888    -0.24000000
opls_145-69    C    0.45357006    0.03977989    0.41517098    -0.24090000
opls_145-70    C    0.71193011    0.93086023    0.45110980    -0.23930000
opls_145-71    C    0.75199022    0.93029989    0.20328012    0.00700000
opls_142-72    C    0.77826023    0.85808984    0.09115947    0.08230000
opls_145-73    C    0.85372029    0.80065983    0.74567876    0.15660000
opls_145-74    C    0.86015021    0.73112025    0.88787935    -0.24100000
opls_145-75    C    0.90673008    0.68357006    0.79739961    -0.24080000
opls_916-76    C    0.94719019    0.70475007    0.56497094    0.12870000
opls_145-77    C    0.93784007    0.77127981    0.41085973    -0.24000000
opls_145-78    C    0.89160005    0.81872013    0.50134888    -0.24000000
opls_145-79    C    0.95357006    0.53977989    0.41517098    -0.24090000
opls_916-80    C    0.50000025    0.91950998    0.49999882    0.12870000
opls_916-81    C    0.00000025    0.41950998    0.49999882    0.12870000
opls_916-82    C    0.50000025    0.08049002    0.49999882    0.12870000
opls_916-83    C    0.00000025    0.58049002    0.49999882    0.12870000
opls_145-84    C    0.27128981    0.50000000    0.07970045    -0.16740000
opls_145-85    C    0.19216031    0.50000000    0.57444957    -0.18670000
opls_145-86    C    0.77128981    0.00000000    0.07970045    -0.16740000
opls_145-87    C    0.69216031    0.00000000    0.57444957    -0.18670000
opls_145-88    C    0.72871019    0.50000000    0.92029955    -0.16740000
opls_145-89    C    0.80784014    0.50000000    0.42555043    -0.18670000
opls_145-90    C    0.22871019    0.00000000    0.92029955    -0.16740000
opls_145-91    C    0.30784014    0.00000000    0.42555043    -0.18670000
opls_750-92    N    0.31573024    0.64032986    0.86231998    -0.20700000
opls_750-93    N    0.81573024    0.14032986    0.86231998    -0.20710000
opls_750-94    N    0.68427020    0.64032986    0.13768002    -0.20700000
opls_750-95    N    0.18427020    0.14032986    0.13768002    -0.20700000
opls_750-96    N    0.68427020    0.35967014    0.13768002    -0.20710000
opls_750-97    N    0.18427020    0.85967014    0.13768002    -0.20710000
opls_750-98    N    0.31573024    0.35967014    0.86231998    -0.20710000
opls_750-99    N    0.81573024    0.85967014    0.86231998    -0.20710000
opls_239-100    N    0.50000025    0.83724982    0.49999882    -0.23910000
opls_239-101    N    0.00000025    0.33724982    0.49999882    -0.23910000
opls_239-102    N    0.50000025    0.16275018    0.49999882    -0.23900000
opls_239-103    N    0.00000025    0.66275018    0.49999882    -0.23910000
opls_146-104    H    0.19751016    0.62206996    0.55405993    0.20170000
opls_144-105    H    0.26966000    0.69347002    0.21599042    0.09490000
opls_146-106    H    0.33177016    0.78451983    0.07777885    0.20170000
opls_146-107    H    0.41319017    0.86764981    0.91727956    0.20130000
opls_146-108    H    0.46773992    0.71232016    0.22684028    0.20210000
opls_146-109    H    0.38656024    0.62804021    0.38983035    0.20120000
opls_146-110    H    0.41741998    0.93005024    0.34922983    0.20200000
opls_146-111    H    0.69751016    0.12206996    0.55405993    0.20170000
opls_144-112    H    0.76966000    0.19347002    0.21599042    0.09490000
opls_146-113    H    0.83177016    0.28451983    0.07777885    0.20170000
opls_146-114    H    0.91319017    0.36764981    0.91727956    0.20130000
opls_146-115    H    0.96773992    0.21232016    0.22684028    0.20210000
opls_146-116    H    0.88656024    0.12804021    0.38983035    0.20110000
opls_146-117    H    0.91741998    0.43005024    0.34922983    0.20200000
opls_146-118    H    0.80249029    0.62206996    0.44594007    0.20170000
opls_144-119    H    0.73034000    0.69347002    0.78400958    0.09490000
opls_146-120    H    0.66822984    0.78451983    0.92222115    0.20170000
opls_146-121    H    0.58680983    0.86764981    0.08272044    0.20140000
opls_146-122    H    0.53226008    0.71232016    0.77315972    0.20210000
opls_146-123    H    0.61344021    0.62804021    0.61016965    0.20110000
opls_146-124    H    0.58258002    0.93005024    0.65077017    0.20200000
opls_146-125    H    0.30249029    0.12206996    0.44594007    0.20170000
opls_144-126    H    0.23034000    0.19347002    0.78400958    0.09490000
opls_146-127    H    0.16822984    0.28451983    0.92222115    0.20170000
opls_146-128    H    0.08680983    0.36764981    0.08272044    0.20130000
opls_146-129    H    0.03226008    0.21232016    0.77315972    0.20210000
opls_146-130    H    0.11344021    0.12804021    0.61016965    0.20110000
opls_146-131    H    0.08258002    0.43005024    0.65077017    0.20200000
opls_146-132    H    0.80249029    0.37793004    0.44594007    0.20170000
opls_144-133    H    0.73034000    0.30652998    0.78400958    0.09490000
opls_146-134    H    0.66822984    0.21548017    0.92222115    0.20180000
opls_146-135    H    0.58680983    0.13235019    0.08272044    0.20130000
opls_146-136    H    0.53226008    0.28767984    0.77315972    0.20210000
opls_146-137    H    0.61344021    0.37195979    0.61016965    0.20110000
opls_146-138    H    0.58258002    0.06994976    0.65077017    0.20200000
opls_146-139    H    0.30249029    0.87793004    0.44594007    0.20170000
opls_144-140    H    0.23034000    0.80652998    0.78400958    0.09490000
opls_146-141    H    0.16822984    0.71548017    0.92222115    0.20170000
opls_146-142    H    0.08680983    0.63235019    0.08272044    0.20130000
opls_146-143    H    0.03226008    0.78767984    0.77315972    0.20210000
opls_146-144    H    0.11344021    0.87195979    0.61016965    0.20110000
opls_146-145    H    0.08258002    0.56994976    0.65077017    0.20200000
opls_146-146    H    0.19751016    0.37793004    0.55405993    0.20170000
opls_144-147    H    0.26966000    0.30652998    0.21599042    0.09490000
opls_146-148    H    0.33177016    0.21548017    0.07777885    0.20170000
opls_146-149    H    0.41319017    0.13235019    0.91727956    0.20130000
opls_146-150    H    0.46773992    0.28767984    0.22684028    0.20220000
opls_146-151    H    0.38656024    0.37195979    0.38983035    0.20110000
opls_146-152    H    0.41741998    0.06994976    0.34922983    0.20200000
opls_146-153    H    0.69751016    0.87793004    0.55405993    0.20170000
opls_144-154    H    0.76966000    0.80652998    0.21599042    0.09490000
opls_146-155    H    0.83177016    0.71548017    0.07777885    0.20170000
opls_146-156    H    0.91319017    0.63235019    0.91727956    0.20130000
opls_146-157    H    0.96773992    0.78767984    0.22684028    0.20210000
opls_146-158    H    0.88656024    0.87195979    0.38983035    0.20110000
opls_146-159    H    0.91741998    0.56994976    0.34922983    0.20200000
opls_146-160    H    0.16343029    0.50000000    0.77418991    0.20190000
opls_146-161    H    0.30309013    0.50000000    0.89140973    0.20210000
opls_146-162    H    0.66343029    0.00000000    0.77418991    0.20200000
opls_146-163    H    0.80309013    0.00000000    0.89140973    0.20210000
opls_146-164    H    0.83657016    0.50000000    0.22581009    0.20190000
opls_146-165    H    0.69691031    0.50000000    0.10859027    0.20210000
opls_146-166    H    0.33657016    0.00000000    0.22581009    0.20190000
opls_146-167    H    0.19691031    0.00000000    0.10859027    0.20210000
