#======================================================================
# Crystal Data Generated By AuToFF
#----------------------------------------------------------------------

data_AuToFF_phase_1

_cell_length_a                         29.7182
_cell_length_b                         29.7182
_cell_length_c                         3.4000
_cell_angle_alpha                      90.00
_cell_angle_beta                       90.00
_cell_angle_gamma                      120.00
_symmetry_space_group_name_H-M_alt     'P 1'
_symmetry_space_group_IT_number        1

loop_
_space_group_symop_operation_xyz
   'x, y, z'

loop_
   _atom_site_label
   _atom_site_type_symbol
   _atom_site_fract_x
   _atom_site_fract_y
   _atom_site_fract_z
   _atom_site_charge
opls_700-0    C    0.71775998    0.37476998    0.09937941    0.06060000
opls_145-1    C    0.70784012    0.32354006    0.09052059    -0.21830000
opls_142-2    C    0.76959015    0.41751008    0.19730000    0.03480000
opls_701-3    C    0.88906983    0.42869993    0.59779118    0.19670000
opls_700-4    C    0.94550980    0.46655984    0.49535882    -0.11270000
opls_145-5    C    0.97940984    0.44676983    0.47664118    -0.22260000
opls_166-6    C    0.52084998    0.55413005    0.49489118    0.18820000
opls_182-7    C    0.58402011    0.63911990    0.74990882    -0.00550000
opls_137-8    C    0.63140989    0.68674990    0.56210882    0.03320000
opls_135-9    C    0.62113978    0.73200975    0.47795882    -0.46690000
opls_135-10    C    0.68617993    0.70648979    0.73489118    -0.44980000
opls_700-11    C    0.62523013    0.34299009    0.09937941    0.06060000
opls_145-12    C    0.67645992    0.38429994    0.09052059    -0.21820000
opls_142-13    C    0.58248983    0.35207983    0.19730000    0.03480000
opls_701-14    C    0.57129980    0.46036985    0.59779118    0.19670000
opls_700-15    C    0.53343994    0.47894992    0.49535882    -0.11270000
opls_145-16    C    0.55322991    0.53263975    0.47664118    -0.22260000
opls_166-17    C    0.44586980    0.96671992    0.49489118    0.18820000
opls_182-18    C    0.36087985    0.94489974    0.74990882    -0.00550000
opls_137-19    C    0.31325004    0.94466000    0.56210882    0.03320000
opls_135-20    C    0.26799004    0.88913001    0.47795882    -0.46690000
opls_135-21    C    0.29350995    0.97968972    0.73489118    -0.44970000
opls_700-22    C    0.65700989    0.28223993    0.09937941    0.06060000
opls_145-23    C    0.61569996    0.29216000    0.09052059    -0.21830000
opls_142-24    C    0.64792001    0.23041009    0.19730000    0.03480000
opls_701-25    C    0.53962984    0.11092983    0.59779118    0.19670000
opls_700-26    C    0.52105007    0.05448985    0.49535882    -0.11260000
opls_145-27    C    0.46736005    0.02059004    0.47664118    -0.22270000
opls_166-28    C    0.03327988    0.47915002    0.49489118    0.18820000
opls_182-29    C    0.05509984    0.41597997    0.74990882    -0.00550000
opls_137-30    C    0.05534006    0.36859009    0.56210882    0.03320000
opls_135-31    C    0.11086999    0.37885985    0.47795882    -0.46690000
opls_135-32    C    0.02030992    0.31382010    0.73489118    -0.44980000
opls_700-33    C    0.28224002    0.62523002    0.09937941    0.06060000
opls_145-34    C    0.29215988    0.67645994    0.09052059    -0.21830000
opls_142-35    C    0.23040985    0.58248992    0.19730000    0.03480000
opls_701-36    C    0.11093017    0.57130007    0.59779118    0.19670000
opls_700-37    C    0.05449001    0.53343977    0.49535882    -0.11270000
opls_145-38    C    0.02058996    0.55322978    0.47664118    -0.22270000
opls_166-39    C    0.47915002    0.44586995    0.49489118    0.18820000
opls_182-40    C    0.41597989    0.36088010    0.74990882    -0.00550000
opls_137-41    C    0.36859011    0.31325010    0.56210882    0.03320000
opls_135-42    C    0.37886003    0.26798986    0.47795882    -0.46690000
opls_135-43    C    0.31381987    0.29350982    0.73489118    -0.44980000
opls_700-44    C    0.37476987    0.65700991    0.09937941    0.06060000
opls_145-45    C    0.32354008    0.61570006    0.09052059    -0.21830000
opls_142-46    C    0.41750997    0.64791978    0.19730000    0.03480000
opls_701-47    C    0.42870001    0.53962976    0.59779118    0.19670000
opls_700-48    C    0.46656006    0.52105008    0.49535882    -0.11270000
opls_145-49    C    0.44676989    0.46735987    0.47664118    -0.22270000
opls_166-50    C    0.55413020    0.03328008    0.49489118    0.18820000
opls_182-51    C    0.63911995    0.05509987    0.74990882    -0.00550000
opls_137-52    C    0.68674996    0.05534000    0.56210882    0.03320000
opls_135-53    C    0.73200996    0.11086999    0.47795882    -0.46690000
opls_135-54    C    0.70648985    0.02030989    0.73489118    -0.44980000
opls_700-55    C    0.34299011    0.71776007    0.09937941    0.06060000
opls_145-56    C    0.38430004    0.70784000    0.09052059    -0.21830000
opls_142-57    C    0.35207999    0.76958991    0.19730000    0.03480000
opls_701-58    C    0.46036997    0.88906978    0.59779118    0.19670000
opls_700-59    C    0.47894974    0.94550976    0.49535882    -0.11270000
opls_145-60    C    0.53263995    0.97940996    0.47664118    -0.22270000
opls_166-61    C    0.96672012    0.52084998    0.49489118    0.18820000
opls_182-62    C    0.94490016    0.58402003    0.74990882    -0.00550000
opls_137-63    C    0.94465994    0.63140991    0.56210882    0.03320000
opls_135-64    C    0.88912982    0.62113976    0.47795882    -0.46690000
opls_135-65    C    0.97969008    0.68617990    0.73489118    -0.44980000
opls_750-66    N    0.80529990    0.40727995    0.29755000    -0.14380000
opls_900-67    N    0.85183982    0.44422988    0.47055000    -0.28180000
opls_750-68    N    0.59271993    0.39802003    0.29755000    -0.14380000
opls_900-69    N    0.55577004    0.40760983    0.47055000    -0.28190000
opls_750-70    N    0.60198017    0.19470002    0.29755000    -0.14380000
opls_900-71    N    0.59238994    0.14815991    0.47055000    -0.28180000
opls_750-72    N    0.19470010    0.59272005    0.29755000    -0.14370000
opls_900-73    N    0.14815998    0.55576973    0.47055000    -0.28190000
opls_750-74    N    0.40728007    0.60197997    0.29755000    -0.14380000
opls_900-75    N    0.44422977    0.59238978    0.47055000    -0.28180000
opls_750-76    N    0.39801983    0.80529998    0.29755000    -0.14380000
opls_900-77    N    0.40760986    0.85183971    0.47055000    -0.28190000
opls_154-78    O    0.37789970    0.50437973    0.47169118    -0.47970000
opls_179-79    O    0.54218000    0.60814004    0.48920882    -0.24450000
opls_154-80    O    0.49561990    0.87352001    0.47169118    -0.47980000
opls_179-81    O    0.39185988    0.93403977    0.48920882    -0.24450000
opls_154-82    O    0.12647987    0.62209986    0.47169118    -0.47980000
opls_179-83    O    0.06595992    0.45781980    0.48920882    -0.24440000
opls_154-84    O    0.62210010    0.49561988    0.47169118    -0.47970000
opls_179-85    O    0.45782000    0.39185996    0.48920882    -0.24430000
opls_154-86    O    0.50438010    0.12647999    0.47169118    -0.47980000
opls_179-87    O    0.60813992    0.06595984    0.48920882    -0.24440000
opls_154-88    O    0.87352013    0.37790014    0.47169118    -0.47980000
opls_179-89    O    0.93403988    0.54217981    0.48920882    -0.24450000
opls_146-90    H    0.73949019    0.31564007    0.11312941    0.10750000
opls_144-91    H    0.77586998    0.45636002    0.23367941    0.10880000
opls_910-92    H    0.85241996    0.47601987    0.60382059    0.24130000
opls_146-93    H    0.96389993    0.40536984    0.46440882    0.10480000
opls_185-94    H    0.59676996    0.61452975    0.90132941    0.05320000
opls_185-95    H    0.56732016    0.65562006    0.95069118    0.06920000
opls_140-96    H    0.63636993    0.67020001    0.30879118    0.22080000
opls_702-97    H    0.88880993    0.42860007    0.90655000    0.10970000
opls_155-98    H    0.35381000    0.51008986    0.63817059    0.31480000
opls_140-99    H    0.58275999    0.72426984    0.58635000    0.15420000
opls_140-100    H    0.62076977    0.73915985    0.17135882    0.09730000
opls_140-101    H    0.65201990    0.76960972    0.59595000    0.15430000
opls_140-102    H    0.71695991    0.72368973    0.50967059    0.11180000
opls_140-103    H    0.69005979    0.67439985    0.86487059    0.15420000
opls_140-104    H    0.69647979    0.73853972    0.94355882    0.11030000
opls_146-105    H    0.68436010    0.42385005    0.11312941    0.10750000
opls_144-106    H    0.54363997    0.31951002    0.23367941    0.10870000
opls_910-107    H    0.52398007    0.37639995    0.60382059    0.24130000
opls_146-108    H    0.59462999    0.55852999    0.46440882    0.10480000
opls_185-109    H    0.38546981    0.98223977    0.90132941    0.05320000
opls_185-110    H    0.34437978    0.91169970    0.95069118    0.06920000
opls_140-111    H    0.32980001    0.96616974    0.30879118    0.22080000
opls_702-112    H    0.57139978    0.46020977    0.90655000    0.10970000
opls_155-113    H    0.48990978    0.84371979    0.63817059    0.31470000
opls_140-114    H    0.27572985    0.85848974    0.58635000    0.15420000
opls_140-115    H    0.26083987    0.88161001    0.17135882    0.09720000
opls_140-116    H    0.23039010    0.88241004    0.59595000    0.15440000
opls_140-117    H    0.27631004    0.99326993    0.50967059    0.11180000
opls_140-118    H    0.32559978    0.01565973    0.86487059    0.15420000
opls_140-119    H    0.26145979    0.95793986    0.94355882    0.11030000
opls_146-120    H    0.57615005    0.26050989    0.11312941    0.10750000
opls_144-121    H    0.68049005    0.22412996    0.23367941    0.10870000
opls_910-122    H    0.62359978    0.14757980    0.60382059    0.24130000
opls_146-123    H    0.44147008    0.03610017    0.46440882    0.10480000
opls_185-124    H    0.01776004    0.40323009    0.90132941    0.05320000
opls_185-125    H    0.08829987    0.43267984    0.95069118    0.06920000
opls_140-126    H    0.03382986    0.36362986    0.30879118    0.22080000
opls_702-127    H    0.53978995    0.11119016    0.90655000    0.10970000
opls_155-128    H    0.15628003    0.64618996    0.63817059    0.31470000
opls_140-129    H    0.14150996    0.41724004    0.58635000    0.15430000
opls_140-130    H    0.11838984    0.37922975    0.17135882    0.09730000
opls_140-131    H    0.11758981    0.34797985    0.59595000    0.15430000
opls_140-132    H    0.00672985    0.28303995    0.50967059    0.11180000
opls_140-133    H    0.98433990    0.30994004    0.86487059    0.15430000
opls_140-134    H    0.04205990    0.30352003    0.94355882    0.11030000
opls_146-135    H    0.26050981    0.68435993    0.11312941    0.10760000
opls_144-136    H    0.22413002    0.54363998    0.23367941    0.10870000
opls_910-137    H    0.14757985    0.52397975    0.60382059    0.24130000
opls_146-138    H    0.03609987    0.59462977    0.46440882    0.10480000
opls_185-139    H    0.40322985    0.38546987    0.90132941    0.05320000
opls_185-140    H    0.43267984    0.34437994    0.95069118    0.06920000
opls_140-141    H    0.36363007    0.32979999    0.30879118    0.22080000
opls_702-142    H    0.11119007    0.57139993    0.90655000    0.10970000
opls_155-143    H    0.64618981    0.48990975    0.63817059    0.31480000
opls_140-144    H    0.41723982    0.27572977    0.58635000    0.15420000
opls_140-145    H    0.37923023    0.26084015    0.17135882    0.09720000
opls_140-146    H    0.34797990    0.23038989    0.59595000    0.15430000
opls_140-147    H    0.28303989    0.27630988    0.50967059    0.11180000
opls_140-148    H    0.30994002    0.32559977    0.86487059    0.15420000
opls_140-149    H    0.30352002    0.26145989    0.94355882    0.11030000
opls_146-150    H    0.31563990    0.57614995    0.11312941    0.10750000
opls_144-151    H    0.45636003    0.68048998    0.23367941    0.10880000
opls_910-152    H    0.47601993    0.62360005    0.60382059    0.24130000
opls_146-153    H    0.40537001    0.44147001    0.46440882    0.10480000
opls_185-154    H    0.61452999    0.01775984    0.90132941    0.05320000
opls_185-155    H    0.65562003    0.08829991    0.95069118    0.06920000
opls_140-156    H    0.67019979    0.03382987    0.30879118    0.22090000
opls_702-157    H    0.42860002    0.53978984    0.90655000    0.10970000
opls_155-158    H    0.51009003    0.15627982    0.63817059    0.31470000
opls_140-159    H    0.72426995    0.14150987    0.58635000    0.15420000
opls_140-160    H    0.73916013    0.11838999    0.17135882    0.09720000
opls_140-161    H    0.76960990    0.11758996    0.59595000    0.15430000
opls_140-162    H    0.72368996    0.00673007    0.50967059    0.11180000
opls_140-163    H    0.67440002    0.98433988    0.86487059    0.15430000
opls_140-164    H    0.73854021    0.04206014    0.94355882    0.11030000
opls_146-165    H    0.42384975    0.73948973    0.11312941    0.10750000
opls_144-166    H    0.31950995    0.77587004    0.23367941    0.10870000
opls_910-167    H    0.37640002    0.85241981    0.60382059    0.24140000
opls_146-168    H    0.55852992    0.96389983    0.46440882    0.10480000
opls_185-169    H    0.98223996    0.59676991    0.90132941    0.05320000
opls_185-170    H    0.91169994    0.56731977    0.95069118    0.06920000
opls_140-171    H    0.96616995    0.63636975    0.30879118    0.22080000
opls_702-172    H    0.46021005    0.88880984    0.90655000    0.10980000
opls_155-173    H    0.84371997    0.35381004    0.63817059    0.31470000
opls_140-174    H    0.85849004    0.58275996    0.58635000    0.15430000
opls_140-175    H    0.88160997    0.62076986    0.17135882    0.09720000
opls_140-176    H    0.88241000    0.65201976    0.59595000    0.15430000
opls_140-177    H    0.99327015    0.71696005    0.50967059    0.11180000
opls_140-178    H    0.01566010    0.69005996    0.86487059    0.15420000
opls_140-179    H    0.95794010    0.69647997    0.94355882    0.11030000
