#======================================================================
# Crystal Data Generated By AuToFF
#----------------------------------------------------------------------

data_AuToFF_phase_1

_cell_length_a                         21.8507
_cell_length_b                         21.8507
_cell_length_c                         3.5805
_cell_angle_alpha                      90.00
_cell_angle_beta                       90.00
_cell_angle_gamma                      120.00
_symmetry_space_group_name_H-M_alt     'P 1'
_symmetry_space_group_IT_number        1

loop_
_space_group_symop_operation_xyz
   'x, y, z'

loop_
   _atom_site_label
   _atom_site_type_symbol
   _atom_site_fract_x
   _atom_site_fract_y
   _atom_site_fract_z
   _atom_site_charge
opls_280-0    C    0.74263010    0.36735002    0.23400084    0.30120000
opls_145-1    C    0.70891994    0.41051013    0.28602988    -0.16480000
opls_142-2    C    0.74530993    0.47990991    0.35390867    0.01580000
opls_141-3    C    0.87310997    0.57595996    0.39347019    0.31320000
opls_916-4    C    0.97025995    0.54523005    0.55564865    0.15700000
opls_145-5    C    0.92803004    0.47129987    0.57576037    -0.19590000
opls_700-6    C    0.95669983    0.42652006    0.59777126    0.08930000
opls_148-7    C    0.08971013    0.64968985    0.70895126    -0.43210000
opls_280-8    C    0.63264997    0.37527995    0.23400084    0.30120000
opls_145-9    C    0.58949021    0.29841000    0.28602988    -0.16480000
opls_142-10    C    0.52008979    0.26539983    0.35390867    0.01580000
opls_141-11    C    0.42403995    0.29715017    0.39347019    0.31320000
opls_916-12    C    0.45476985    0.42502983    0.55564865    0.15700000
opls_145-13    C    0.52869999    0.45672997    0.57576037    -0.19590000
opls_700-14    C    0.57348001    0.53017979    0.59777126    0.08930000
opls_148-15    C    0.35031010    0.44001985    0.70895126    -0.43210000
opls_280-16    C    0.62471992    0.25737003    0.23400084    0.30120000
opls_145-17    C    0.70158985    0.29107987    0.28602988    -0.16480000
opls_142-18    C    0.73460027    0.25469026    0.35390867    0.01580000
opls_141-19    C    0.70285008    0.12688987    0.39347019    0.31320000
opls_916-20    C    0.57497019    0.02974012    0.55564865    0.15700000
opls_145-21    C    0.54326997    0.07197016    0.57576037    -0.19590000
opls_700-22    C    0.46982016    0.04330015    0.59777126    0.08930000
opls_148-23    C    0.55998023    0.91029030    0.70895126    -0.43210000
opls_280-24    C    0.25736990    0.63264998    0.23400084    0.30120000
opls_145-25    C    0.29108006    0.58948987    0.28602988    -0.16480000
opls_142-26    C    0.25469007    0.52009009    0.35390867    0.01580000
opls_141-27    C    0.12689003    0.42404004    0.39347019    0.31320000
opls_916-28    C    0.02974005    0.45476995    0.55564865    0.15700000
opls_145-29    C    0.07196996    0.52870013    0.57576037    -0.19590000
opls_700-30    C    0.04330017    0.57347994    0.59777126    0.08930000
opls_148-31    C    0.91028987    0.35031015    0.70895126    -0.43210000
opls_280-32    C    0.36735003    0.62472005    0.23400084    0.30120000
opls_145-33    C    0.41050979    0.70159000    0.28602988    -0.16480000
opls_142-34    C    0.47991021    0.73460017    0.35390867    0.01580000
opls_141-35    C    0.57596005    0.70284983    0.39347019    0.31320000
opls_916-36    C    0.54523015    0.57497017    0.55564865    0.15700000
opls_145-37    C    0.47130001    0.54327003    0.57576037    -0.19590000
opls_700-38    C    0.42651999    0.46982021    0.59777126    0.08930000
opls_148-39    C    0.64968990    0.55998015    0.70895126    -0.43210000
opls_280-40    C    0.37528008    0.74262997    0.23400084    0.30120000
opls_145-41    C    0.29841015    0.70892013    0.28602988    -0.16480000
opls_142-42    C    0.26539999    0.74531027    0.35390867    0.01580000
opls_141-43    C    0.29714992    0.87311013    0.39347019    0.31320000
opls_916-44    C    0.42502981    0.97025988    0.55564865    0.15700000
opls_145-45    C    0.45673003    0.92802984    0.57576037    -0.19590000
opls_700-46    C    0.53017984    0.95669985    0.59777126    0.08930000
opls_148-47    C    0.44002003    0.08971023    0.70895126    -0.43200000
opls_238-48    N    0.81389984    0.51236996    0.51745008    -0.36580000
opls_238-49    N    0.94212024    0.59285028    0.51707024    -0.40700000
opls_238-50    N    0.48763016    0.30152997    0.51745008    -0.36570000
opls_238-51    N    0.40715028    0.34927016    0.51707024    -0.40690000
opls_238-52    N    0.69847000    0.18610007    0.51745008    -0.36580000
opls_238-53    N    0.65073019    0.05788009    0.51707024    -0.40700000
opls_238-54    N    0.18610016    0.48763004    0.51745008    -0.36580000
opls_238-55    N    0.05788002    0.40715025    0.51707024    -0.40700000
opls_238-56    N    0.51236984    0.69847003    0.51745008    -0.36580000
opls_238-57    N    0.59284972    0.65072984    0.51707024    -0.40690000
opls_238-58    N    0.30153000    0.81389993    0.51745008    -0.36560000
opls_238-59    N    0.34926981    0.94211991    0.51707024    -0.40700000
opls_474-60    S    0.86266987    0.63117983    0.24420053    -0.20820000
opls_474-61    S    0.36882031    0.23149024    0.24420053    -0.20820000
opls_474-62    S    0.76850982    0.13732993    0.24420053    -0.20820000
opls_474-63    S    0.13733013    0.36882017    0.24420053    -0.20810000
opls_474-64    S    0.63117996    0.76851029    0.24420053    -0.20820000
opls_474-65    S    0.23149018    0.86267007    0.24420053    -0.20820000
opls_281-66    O    0.80237984    0.39344014    0.11314900    -0.35290000
opls_281-67    O    0.60656015    0.40894011    0.11314900    -0.35280000
opls_281-68    O    0.59106001    0.19761975    0.11314900    -0.35290000
opls_281-69    O    0.19762016    0.60655986    0.11314900    -0.35290000
opls_281-70    O    0.39343985    0.59105989    0.11314900    -0.35290000
opls_281-71    O    0.40893999    0.80238025    0.11314900    -0.35290000
opls_144-72    H    0.72046004    0.51114026    0.31562072    0.10490000
opls_910-73    H    0.97712985    0.64702012    0.53550901    0.27060000
opls_146-74    H    0.87297002    0.44703978    0.59588046    0.24510000
opls_910-75    H    0.81842009    0.49472025    0.77808127    0.26540000
opls_702-76    H    0.09841999    0.68728010    0.48358888    0.11960000
opls_702-77    H    0.14154003    0.66018012    0.81252060    0.12100000
opls_702-78    H    0.06321972    0.66205981    0.93317134    0.12350000
opls_144-79    H    0.48886013    0.20932017    0.31562072    0.10490000
opls_910-80    H    0.35297994    0.33011014    0.53550901    0.27050000
opls_146-81    H    0.55295995    0.42592978    0.59588046    0.24510000
opls_910-82    H    0.50528021    0.32370004    0.77808127    0.26540000
opls_702-83    H    0.31271991    0.41114005    0.48358888    0.11970000
opls_702-84    H    0.33982006    0.48135998    0.81252060    0.12100000
opls_702-85    H    0.33794003    0.40116027    0.93317134    0.12350000
opls_144-86    H    0.79068009    0.27954010    0.31562072    0.10490000
opls_910-87    H    0.66988975    0.02286974    0.53550901    0.27050000
opls_146-88    H    0.57406977    0.12702991    0.59588046    0.24510000
opls_910-89    H    0.67629996    0.18158024    0.77808127    0.26540000
opls_702-90    H    0.58886010    0.90157985    0.48358888    0.11960000
opls_702-91    H    0.51863990    0.85845991    0.81252060    0.12100000
opls_702-92    H    0.59883979    0.93677992    0.93317134    0.12350000
opls_144-93    H    0.27954022    0.48886027    0.31562072    0.10490000
opls_910-94    H    0.02287015    0.35297988    0.53550901    0.27050000
opls_146-95    H    0.12702998    0.55296022    0.59588046    0.24510000
opls_910-96    H    0.18158017    0.50528027    0.77808127    0.26540000
opls_702-97    H    0.90158001    0.31271990    0.48358888    0.11970000
opls_702-98    H    0.85845997    0.33981988    0.81252060    0.12100000
opls_702-99    H    0.93678028    0.33794019    0.93317134    0.12350000
opls_144-100    H    0.51113987    0.79067983    0.31562072    0.10490000
opls_910-101    H    0.64702006    0.66988986    0.53550901    0.27050000
opls_146-102    H    0.44704005    0.57407022    0.59588046    0.24510000
opls_910-103    H    0.49471979    0.67629996    0.77808127    0.26540000
opls_702-104    H    0.68728009    0.58885995    0.48358888    0.11960000
opls_702-105    H    0.66017994    0.51864002    0.81252060    0.12100000
opls_702-106    H    0.66206023    0.59884026    0.93317134    0.12350000
opls_144-107    H    0.20931991    0.72045990    0.31562072    0.10490000
opls_910-108    H    0.33011025    0.97713026    0.53550901    0.27060000
opls_146-109    H    0.42593023    0.87297009    0.59588046    0.24510000
opls_910-110    H    0.32370030    0.81842029    0.77808127    0.26540000
opls_702-111    H    0.41113990    0.09842015    0.48358888    0.11960000
opls_702-112    H    0.48136010    0.14154009    0.81252060    0.12100000
opls_702-113    H    0.40116021    0.06322008    0.93317134    0.12350000
