#======================================================================
# Crystal Data Generated By AuToFF
#----------------------------------------------------------------------

data_AuToFF_phase_1

_cell_length_a                         34.4800
_cell_length_b                         33.1400
_cell_length_c                         10.8900
_cell_angle_alpha                      89.83
_cell_angle_beta                       88.81
_cell_angle_gamma                      60.25
_symmetry_space_group_name_H-M_alt     'P 1'
_symmetry_space_group_IT_number        1

loop_
_space_group_symop_operation_xyz
   'x, y, z'

loop_
   _atom_site_label
   _atom_site_type_symbol
   _atom_site_fract_x
   _atom_site_fract_y
   _atom_site_fract_z
   _atom_site_charge
opls_238-0    N    0.65720005    0.66420011    0.04811036    -0.31930000
opls_238-1    N    0.07506002    0.46461003    0.72200995    -0.31400000
opls_238-2    N    0.27890019    0.43647012    0.71630971    -0.31990000
opls_238-3    N    0.25810011    0.26876001    0.65239004    -0.28520000
opls_238-4    N    0.46851029    0.67233990    0.74043974    -0.31970000
opls_238-5    N    0.46202020    0.84861021    0.60311042    -0.29130000
opls_238-6    N    0.65720013    0.66419993    0.54811036    -0.31930000
opls_238-7    N    0.07506010    0.46460986    0.22200995    -0.29680000
opls_238-8    N    0.27889998    0.43646995    0.21630971    -0.31990000
opls_238-9    N    0.25810003    0.26876018    0.15239004    -0.28540000
opls_238-10    N    0.46851021    0.67234007    0.24043974    -0.31970000
opls_238-11    N    0.46202000    0.84861004    0.10311042    -0.29130000
opls_910-12    H    0.66411012    0.66656987    0.95525963    0.24490000
opls_702-13    H    0.91476016    0.58053992    0.13099990    0.09760000
opls_702-14    H    0.90753000    0.53070993    0.98331995    0.11630000
opls_140-15    H    0.82893020    0.53560990    0.30806006    0.10760000
opls_140-16    H    0.88789011    0.49940010    0.30455964    0.10090000
opls_140-17    H    0.83033028    0.63229991    0.13603974    0.10200000
opls_702-18    H    0.82188005    0.58328981    0.98847001    0.10770000
opls_140-19    H    0.86906014    0.58484986    0.34497018    0.10240000
opls_140-20    H    0.85520999    0.49760995    0.08776037    0.10590000
opls_146-21    H    0.67707019    0.70642993    0.23552023    0.22620000
opls_702-22    H    0.75718008    0.57151996    0.90413015    0.15720000
opls_702-23    H    0.01024012    0.55932991    0.27639002    0.11130000
opls_146-24    H    0.05642011    0.41843006    0.05524990    0.08870000
opls_702-25    H    0.96274020    0.40787997    0.99682014    0.11630000
opls_702-26    H    0.95942009    0.44980996    0.88997048    0.11400000
opls_702-27    H    0.01273016    0.40155016    0.92195006    0.09550000
opls_140-28    H    0.76554010    0.67039015    0.43519030    0.09450000
opls_140-29    H    0.77988995    0.69576017    0.30916043    0.11710000
opls_140-30    H    0.72285014    0.72098013    0.36545008    0.11390000
opls_702-31    H    0.42047005    0.02624998    0.07721043    0.04660000
opls_140-32    H    0.35657011    0.01166996    0.07907958    0.04660000
opls_140-33    H    0.34543014    0.08358991    0.41747051    0.09080000
opls_140-34    H    0.38495020    0.02437988    0.40532972    0.09100000
opls_140-35    H    0.36381006    0.10878016    0.08706966    0.04660000
opls_702-36    H    0.30045999    0.09434013    0.09804028    0.08640000
opls_140-37    H    0.41704985    0.07100018    0.29054969    0.10870000
opls_140-38    H    0.30971016    0.04180992    0.30091961    0.11010000
opls_146-39    H    0.20165009    0.24171011    0.21271008    0.08650000
opls_140-40    H    0.20867009    0.14228015    0.33080040    0.11780000
opls_702-41    H    0.74335000    0.54207026    0.01895978    0.10880000
opls_146-42    H    0.52183021    0.87580998    0.13787032    0.09810000
opls_140-43    H    0.34772015    0.92679992    0.23768974    0.15640000
opls_140-44    H    0.34830022    0.94448012    0.08154026    0.11200000
opls_140-45    H    0.37831012    0.88581986    0.11891973    0.10310000
opls_140-46    H    0.38667001    0.16428992    0.17639976    0.11630000
opls_140-47    H    0.35025998    0.20999998    0.08020016    0.09440000
opls_140-48    H    0.35814012    0.21985990    0.23946980    0.10130000
opls_140-49    H    0.37983010    0.50007009    0.14711048    0.10870000
opls_140-50    H    0.31492007    0.57835982    0.15429043    0.10780000
opls_140-51    H    0.39225008    0.56283008    0.47951000    0.07760000
opls_140-52    H    0.35396013    0.54178998    0.47714025    0.08980000
opls_140-53    H    0.43458997    0.52952006    0.15164973    0.10260000
opls_140-54    H    0.36997024    0.60756989    0.15337009    0.10750000
opls_140-55    H    0.42875002    0.48514003    0.35820032    0.09720000
opls_140-56    H    0.31883010    0.62059016    0.36586983    0.09880000
opls_146-57    H    0.53217000    0.58183012    0.27909042    0.10980000
opls_140-58    H    0.38428011    0.71607997    0.27324047    0.10940000
opls_140-59    H    0.38835001    0.42013999    0.15800027    0.15600000
opls_146-60    H    0.21550008    0.52645000    0.27004040    0.11200000
opls_702-61    H    0.22033012    0.61961999    0.37516969    0.11920000
opls_702-62    H    0.22767026    0.62002998    0.21033024    0.11220000
opls_702-63    H    0.18840027    0.60493991    0.27515004    0.15390000
opls_702-64    H    0.52783999    0.48589007    0.36232992    0.11100000
opls_702-65    H    0.52145013    0.48896989    0.19756027    0.11480000
opls_702-66    H    0.55998014    0.50310993    0.26675031    0.15390000
opls_146-67    H    0.52183013    0.87581015    0.63787032    0.09810000
opls_140-68    H    0.34772007    0.92680010    0.73768974    0.15640000
opls_140-69    H    0.34830031    0.94447994    0.58154026    0.11200000
opls_140-70    H    0.37831004    0.88582004    0.61891973    0.10310000
opls_140-71    H    0.38666992    0.16429009    0.67639976    0.11630000
opls_140-72    H    0.35025990    0.21000015    0.58020016    0.09440000
opls_140-73    H    0.35814003    0.21986007    0.73946980    0.10130000
opls_140-74    H    0.37983019    0.50006991    0.64711048    0.10860000
opls_140-75    H    0.31492028    0.57836000    0.65429043    0.10780000
opls_140-76    H    0.39225000    0.56283025    0.97951000    0.07760000
opls_140-77    H    0.35396004    0.54179015    0.97714025    0.08980000
opls_140-78    H    0.43458988    0.52952023    0.65164973    0.10260000
opls_140-79    H    0.36997016    0.60757006    0.65337009    0.10750000
opls_140-80    H    0.42874994    0.48514020    0.85820032    0.09720000
opls_140-81    H    0.31883018    0.62058999    0.86586983    0.09880000
opls_146-82    H    0.53217008    0.58182995    0.77909042    0.10980000
opls_140-83    H    0.38428002    0.71608015    0.77324047    0.10940000
opls_140-84    H    0.38834993    0.42014016    0.65800027    0.15600000
opls_146-85    H    0.21550000    0.52645017    0.77004040    0.11200000
opls_702-86    H    0.22033003    0.61962016    0.87517061    0.11920000
opls_702-87    H    0.22767017    0.62003016    0.71033024    0.11220000
opls_702-88    H    0.18840018    0.60494008    0.77515004    0.15390000
opls_702-89    H    0.52783991    0.48589024    0.86232992    0.11100000
opls_702-90    H    0.52145005    0.48897006    0.69756027    0.11480000
opls_702-91    H    0.55998005    0.50311011    0.76675031    0.15390000
opls_144-92    H    0.09689001    0.39398008    0.76337021    0.09600000
opls_144-93    H    0.30084015    0.28972015    0.74101013    0.09730000
opls_144-94    H    0.21243012    0.47871996    0.64359995    0.10940000
opls_910-95    H    0.07410012    0.47991002    0.80569032    0.23570000
opls_910-96    H    0.29451003    0.42618009    0.62977002    0.24480000
opls_910-97    H    0.27533006    0.26381001    0.56861047    0.24480000
opls_144-98    H    0.53413010    0.62991007    0.65347020    0.09600000
opls_144-99    H    0.62851012    0.73665002    0.56486021    0.10990000
opls_144-100    H    0.43456013    0.82204012    0.73751982    0.09210000
opls_910-101    H    0.45027011    0.68702018    0.66138037    0.24480000
opls_910-102    H    0.48920009    0.83609005    0.54128036    0.24490000
opls_140-103    H    0.39409990    0.40948020    0.82106976    0.15390000
opls_140-104    H    0.36218017    0.39178993    0.73322030    0.10960000
opls_140-105    H    0.36297993    0.68946022    0.67230047    0.15640000
opls_140-106    H    0.35058026    0.69425001    0.83539017    0.10320000
opls_702-107    H    0.69985010    0.58937990    0.44196979    0.15690000
opls_702-108    H    0.01061017    0.52816005    0.91242976    0.15750000
opls_702-109    H    0.74335008    0.54207009    0.51895978    0.10880000
opls_702-110    H    0.95872025    0.57074004    0.85230995    0.11430000
opls_144-111    H    0.17555991    0.18923010    0.73231006    0.13830000
opls_144-112    H    0.21515001    0.13535018    0.66562018    0.14400000
opls_140-113    H    0.52902024    0.95041989    0.58409003    0.15640000
opls_140-114    H    0.50343025    0.99227003    0.70486054    0.10630000
opls_140-115    H    0.54350024    0.93486018    0.74253026    0.11690000
MOF2_H_-116    H    0.09689009    0.39397991    0.26337021    0.08150000
opls_144-117    H    0.30083994    0.28971997    0.24101013    0.09730000
opls_144-118    H    0.21243003    0.47872013    0.14359995    0.10940000
opls_910-119    H    0.07410003    0.47991019    0.30569032    0.23570000
opls_910-120    H    0.29451011    0.42617991    0.12977002    0.24480000
opls_910-121    H    0.27533014    0.26380984    0.06861047    0.24480000
opls_144-122    H    0.53413018    0.62990990    0.15347020    0.09600000
opls_144-123    H    0.62851020    0.73664985    0.06486021    0.10990000
opls_144-124    H    0.43456022    0.82203994    0.23751982    0.09210000
opls_910-125    H    0.45027019    0.68702000    0.16138037    0.24480000
opls_910-126    H    0.48920018    0.83608988    0.04128036    0.24480000
opls_140-127    H    0.39409998    0.40948003    0.32106976    0.15390000
opls_140-128    H    0.36218009    0.39179010    0.23322030    0.10960000
opls_140-129    H    0.36298002    0.68946005    0.17230047    0.15640000
opls_140-130    H    0.35058018    0.69425018    0.33539017    0.10320000
opls_702-131    H    0.69985002    0.58938007    0.94196979    0.15690000
opls_140-132    H    0.17555999    0.18922992    0.23231006    0.11180000
opls_140-133    H    0.21515009    0.13535001    0.16562018    0.11590000
opls_702-134    H    0.95872004    0.57073986    0.35230995    0.11430000
opls_702-135    H    0.01061026    0.52815988    0.41242976    0.15750000
opls_140-136    H    0.52902016    0.95042006    0.08409003    0.15640000
opls_140-137    H    0.50343034    0.99226985    0.20485962    0.10630000
opls_140-138    H    0.54350003    0.93486001    0.24253026    0.11690000
opls_910-139    H    0.66411004    0.66657004    0.45525963    0.24480000
opls_702-140    H    0.91476008    0.58054010    0.63099990    0.09760000
opls_702-141    H    0.90752992    0.53071011    0.48331995    0.11630000
opls_140-142    H    0.82893012    0.53561007    0.80806006    0.07740000
opls_140-143    H    0.88789018    0.49939993    0.80456056    0.10090000
opls_140-144    H    0.83033019    0.63230008    0.63603974    0.10200000
opls_702-145    H    0.82188026    0.58328999    0.48847001    0.10770000
opls_140-146    H    0.86906006    0.58485003    0.84497018    0.10240000
opls_140-147    H    0.85521020    0.49761013    0.58776037    0.10580000
opls_146-148    H    0.67707010    0.70643010    0.73552023    0.22630000
opls_702-149    H    0.75717999    0.57152013    0.40413015    0.15720000
opls_702-150    H    0.01024004    0.55933008    0.77639002    0.11130000
opls_146-151    H    0.05642020    0.41842989    0.55524990    0.08870000
opls_702-152    H    0.96274012    0.40788014    0.49682014    0.11630000
opls_702-153    H    0.95942001    0.44981014    0.38997048    0.11400000
opls_702-154    H    0.01272995    0.40154999    0.42195006    0.09550000
opls_140-155    H    0.76554019    0.67038998    0.93519030    0.09450000
opls_140-156    H    0.77989004    0.69576000    0.80916043    0.11710000
opls_140-157    H    0.72285022    0.72097996    0.86545008    0.11390000
opls_702-158    H    0.42046997    0.02625015    0.57721043    0.04660000
opls_140-159    H    0.35657002    0.01167013    0.57908050    0.04660000
opls_140-160    H    0.34543006    0.08359009    0.91747051    0.09080000
opls_140-161    H    0.38495011    0.02438006    0.90533063    0.09100000
opls_140-162    H    0.36381014    0.10877999    0.58707058    0.04660000
opls_702-163    H    0.30046008    0.09433996    0.59804028    0.08630000
opls_140-164    H    0.41704993    0.07100001    0.79055061    0.10870000
opls_140-165    H    0.30971007    0.04181010    0.80092053    0.11010000
opls_146-166    H    0.20165017    0.24170994    0.71271008    0.08660000
opls_515-167    C    0.90906000    0.55397002    0.17280014    -0.05110000
opls_137-168    C    0.86682020    0.57051984    0.25615995    0.01260000
opls_137-169    C    0.85967018    0.52567984    0.12186997    0.01960000
opls_515-170    C    0.90443997    0.52307015    0.08063002    -0.05170000
opls_136-171    C    0.86029998    0.52947997    0.26090036    -0.20870000
opls_515-172    C    0.82730007    0.60410996    0.17771046    -0.05110000
opls_515-173    C    0.82210991    0.57361008    0.08563036    -0.05010000
opls_145-174    C    0.78128999    0.61725008    0.22539004    -0.00290000
opls_145-175    C    0.74639023    0.65965996    0.25810994    0.08420000
opls_145-176    C    0.70440995    0.67403016    0.20641006    -0.22880000
opls_916-177    C    0.69868012    0.64799002    0.11331042    0.17120000
opls_700-178    C    0.73575003    0.60531991    0.07909979    0.05480000
opls_700-179    C    0.77601024    0.59006987    0.13998012    0.03540000
opls_700-180    C    0.99191012    0.50848003    0.24599027    0.05260000
opls_700-181    C    0.95071025    0.51321989    0.21520015    -0.00230000
opls_700-182    C    0.94696995    0.48506011    0.12996016    0.00210000
opls_700-183    C    0.98458021    0.45211989    0.06663017    0.09110000
opls_145-184    C    0.02684020    0.44427992    0.10267046    -0.24460000
opls_916-185    C    0.03129989    0.47104009    0.19529983    0.15170000
opls_148-186    C    0.97973018    0.42631004    0.96272983    -0.48180000
opls_148-187    C    0.75397029    0.68850992    0.34691006    -0.48060000
opls_515-188    C    0.40815994    0.02281991    0.16944024    -0.05110000
opls_137-189    C    0.39075992    0.06457993    0.25497967    0.01250000
opls_137-190    C    0.33490008    0.04958997    0.26038048    0.01250000
opls_515-191    C    0.36947982    0.01307014    0.17051030    -0.05000000
opls_136-192    C    0.36426000    0.05526990    0.35210971    -0.21060000
opls_515-193    C    0.35380994    0.10401011    0.18109974    -0.05010000
opls_515-194    C    0.31519010    0.09430989    0.18799037    -0.05110000
opls_145-195    C    0.32425989    0.14756012    0.24840961    0.00150000
opls_145-196    C    0.31594010    0.19067987    0.21458016    0.05370000
opls_916-197    C    0.27051001    0.22581988    0.20699974    0.15690000
opls_145-198    C    0.23585995    0.21560001    0.22625987    -0.23990000
opls_145-199    C    0.24512006    0.17111002    0.24537028    0.12120000
opls_700-200    C    0.28943995    0.13779020    0.25904038    -0.00360000
opls_145-201    C    0.47959023    0.94455011    0.19261045    0.11350000
opls_700-202    C    0.43601010    0.97704990    0.22473974    -0.00160000
opls_145-203    C    0.40102018    0.96746994    0.22196035    0.00130000
opls_145-204    C    0.40835023    0.92541994    0.18081960    0.05470000
opls_916-205    C    0.45314007    0.89065990    0.15778993    0.16050000
opls_145-206    C    0.48823020    0.90078988    0.16508010    -0.21680000
opls_148-207    C    0.73362010    0.57576013    0.98027052    -0.47940000
opls_148-208    C    0.36864014    0.92007011    0.15305045    -0.48220000
opls_148-209    C    0.35470009    0.19679992    0.17511017    -0.42670000
opls_515-210    C    0.36767010    0.51478016    0.24021012    -0.05170000
opls_137-211    C    0.40256005    0.51785986    0.32178987    0.01730000
opls_137-212    C    0.34540003    0.58823006    0.32580006    0.01260000
opls_515-213    C    0.32825016    0.56300984    0.24477049    -0.05110000
opls_136-214    C    0.37349013    0.55258997    0.41856996    -0.21050000
opls_515-215    C    0.42050008    0.54386984    0.24403018    -0.05110000
opls_515-216    C    0.38103004    0.59207999    0.24509013    -0.05130000
opls_145-217    C    0.44612020    0.56217994    0.30953977    0.00210000
opls_700-218    C    0.48991013    0.55282001    0.29156004    0.10920000
opls_145-219    C    0.49781023    0.58943999    0.28313001    -0.21100000
opls_916-220    C    0.46171009    0.63465986    0.27140989    0.15150000
opls_145-221    C    0.41707025    0.64265001    0.28328983    0.05530000
opls_145-222    C    0.41052003    0.60617004    0.30854044    0.00150000
opls_145-223    C    0.33057014    0.46436990    0.26856987    0.05510000
opls_145-224    C    0.33741013    0.50007988    0.30084980    0.00150000
opls_145-225    C    0.30200000    0.54419014    0.30785983    -0.00080000
opls_700-226    C    0.25820020    0.55430009    0.29107048    0.10500000
opls_145-227    C    0.24995016    0.51822987    0.27525015    -0.21170000
opls_916-228    C    0.28586007    0.47304015    0.25695997    0.15460000
opls_148-229    C    0.22143009    0.60246003    0.28762976    -0.48160000
opls_148-230    C    0.52704006    0.50497004    0.27880018    -0.48180000
opls_280-231    C    0.24516002    0.37579005    0.28118002    0.26920000
opls_141-232    C    0.21655996    0.42149000    0.22897037    -0.16290000
opls_261-233    C    0.16959994    0.43471007    0.19887006    0.22650000
opls_145-234    C    0.47959031    0.94454994    0.69261045    0.11350000
opls_700-235    C    0.43601002    0.97705008    0.72473974    -0.00160000
opls_145-236    C    0.40102009    0.96747011    0.72196035    0.00130000
opls_145-237    C    0.40835013    0.92542012    0.68082052    0.05470000
opls_916-238    C    0.45314028    0.89066007    0.65778993    0.16050000
opls_145-239    C    0.48823011    0.90079006    0.66508010    -0.21680000
opls_148-240    C    0.36864022    0.92006993    0.65305045    -0.48220000
opls_148-241    C    0.35470001    0.19680009    0.67511017    -0.42670000
opls_515-242    C    0.36767019    0.51477998    0.74021012    -0.05170000
opls_137-243    C    0.40256026    0.51786003    0.82178987    0.01740000
opls_137-244    C    0.34539995    0.58823023    0.82580006    0.01260000
opls_515-245    C    0.32825007    0.56301002    0.74477049    -0.05110000
opls_136-246    C    0.37349005    0.55259014    0.91856996    -0.21060000
opls_515-247    C    0.42049999    0.54387002    0.74403018    -0.05110000
opls_515-248    C    0.38102996    0.59208016    0.74509013    -0.05130000
opls_145-249    C    0.44612012    0.56218012    0.80953977    0.00210000
opls_700-250    C    0.48991005    0.55282018    0.79156004    0.10920000
opls_145-251    C    0.49781014    0.58944016    0.78313001    -0.21100000
opls_916-252    C    0.46171001    0.63466003    0.77140989    0.15170000
opls_145-253    C    0.41707017    0.64265019    0.78328983    0.05530000
opls_145-254    C    0.41051994    0.60617022    0.80854044    0.00150000
opls_145-255    C    0.33057005    0.46437007    0.76856987    0.05510000
opls_145-256    C    0.33741005    0.50008005    0.80084980    0.00150000
opls_145-257    C    0.30200008    0.54418996    0.80785983    -0.00080000
opls_700-258    C    0.25820028    0.55429991    0.79107048    0.10500000
opls_145-259    C    0.24995007    0.51823004    0.77525015    -0.21170000
opls_916-260    C    0.28586015    0.47303997    0.75695997    0.15460000
opls_148-261    C    0.22143000    0.60246021    0.78762976    -0.48180000
opls_148-262    C    0.52703997    0.50497021    0.77880018    -0.48160000
opls_280-263    C    0.24515994    0.37579022    0.78118002    0.26920000
opls_145-264    C    0.21656016    0.42149018    0.72897037    -0.21150000
opls_280-265    C    0.16959986    0.43471025    0.69887006    0.28360000
opls_145-266    C    0.15221006    0.40318020    0.72553057    -0.21270000
opls_280-267    C    0.18545003    0.35457008    0.74198008    0.27680000
opls_145-268    C    0.23359996    0.34019002    0.75561987    -0.22020000
opls_142-269    C    0.10788008    0.41770005    0.73625044    0.08000000
opls_142-270    C    0.26653009    0.29780993    0.72906039    0.10010000
opls_142-271    C    0.23298997    0.44891002    0.69754006    0.09780000
opls_280-272    C    0.54798998    0.76446012    0.66203985    0.27700000
opls_145-273    C    0.50271016    0.77529022    0.70750033    -0.13400000
opls_280-274    C    0.49806010    0.73774997    0.76060000    0.26690000
opls_145-275    C    0.52772009    0.69115996    0.71266049    -0.22770000
opls_280-276    C    0.57195006    0.68024992    0.65731047    0.28270000
opls_145-277    C    0.58274999    0.71697020    0.63275976    -0.21310000
opls_142-278    C    0.51367029    0.66060000    0.70630994    0.06000000
opls_142-279    C    0.62260012    0.70871020    0.58368038    0.07490000
opls_142-280    C    0.46571007    0.81640997    0.69492049    0.06870000
opls_148-281    C    0.37085012    0.41883003    0.74333028    -0.48100000
opls_148-282    C    0.37665013    0.68826019    0.76456060    -0.48110000
opls_148-283    C    0.73362019    0.57575996    0.48027052    -0.47940000
opls_143-284    C    0.20895022    0.15889999    0.74327057    -0.40240000
opls_148-285    C    0.99299020    0.54369014    0.82620972    -0.48110000
opls_148-286    C    0.51593013    0.95635012    0.68029054    -0.48110000
opls_700-287    C    0.99191004    0.50848021    0.74599027    0.05260000
opls_700-288    C    0.98458013    0.45212007    0.56663017    0.09110000
opls_145-289    C    0.02684011    0.44428010    0.60267046    -0.24470000
opls_916-290    C    0.03130027    0.47103992    0.69529983    0.15170000
opls_515-291    C    0.40816015    0.02282008    0.66944024    -0.05110000
opls_515-292    C    0.36948019    0.01306997    0.67051030    -0.05000000
opls_261-293    C    0.18545012    0.35456990    0.24198008    0.22600000
opls_141-294    C    0.23360005    0.34018985    0.25561987    -0.10690000
opls_261-295    C    0.10788016    0.41769988    0.23625044    0.10190000
opls_142-296    C    0.26653001    0.29781010    0.22906039    0.10010000
opls_142-297    C    0.23299005    0.44890985    0.19754006    0.09780000
opls_280-298    C    0.54799006    0.76445995    0.16203985    0.27700000
opls_145-299    C    0.50271025    0.77529004    0.20750033    -0.13390000
opls_280-300    C    0.49806002    0.73775014    0.26060000    0.26690000
opls_145-301    C    0.52772001    0.69116013    0.21266049    -0.22760000
opls_280-302    C    0.57194998    0.68025009    0.15731047    0.28270000
opls_145-303    C    0.58275007    0.71697003    0.13275976    -0.21310000
opls_142-304    C    0.51367008    0.66059982    0.20630994    0.06000000
opls_142-305    C    0.62260020    0.70871002    0.08368038    0.07490000
opls_142-306    C    0.46570999    0.81641014    0.19492049    0.06870000
opls_148-307    C    0.37085020    0.41882985    0.24333028    -0.48110000
opls_148-308    C    0.37665022    0.68826001    0.26455968    -0.48110000
opls_148-309    C    0.20894985    0.15890016    0.24326966    -0.48120000
opls_148-310    C    0.99298999    0.54368997    0.32620972    -0.48110000
opls_148-311    C    0.51593022    0.95634994    0.18028962    -0.48110000
opls_515-312    C    0.90905991    0.55397019    0.67280014    -0.05110000
opls_137-313    C    0.86682012    0.57052001    0.75615995    0.01260000
opls_137-314    C    0.85967010    0.52568001    0.62186997    0.01960000
opls_515-315    C    0.90444005    0.52306998    0.58063002    -0.05170000
opls_136-316    C    0.86030018    0.52948014    0.76090036    -0.20870000
opls_515-317    C    0.82729998    0.60411013    0.67771046    -0.05110000
opls_515-318    C    0.82211029    0.57360990    0.58563036    -0.05020000
opls_145-319    C    0.78129008    0.61724990    0.72539004    -0.00290000
opls_145-320    C    0.74639014    0.65966014    0.75810994    0.08420000
opls_145-321    C    0.70441003    0.67402999    0.70641006    -0.22870000
opls_916-322    C    0.69868004    0.64799020    0.61331042    0.17120000
opls_700-323    C    0.73575023    0.60532009    0.57909979    0.05480000
opls_700-324    C    0.77601016    0.59007004    0.63998012    0.03540000
opls_700-325    C    0.95071017    0.51322007    0.71520015    -0.00230000
opls_700-326    C    0.94697003    0.48505994    0.62996016    0.00210000
opls_148-327    C    0.97973010    0.42631021    0.46272983    -0.48180000
opls_148-328    C    0.75397021    0.68851009    0.84691006    -0.48070000
opls_137-329    C    0.39076012    0.06458011    0.75498059    0.01250000
opls_137-330    C    0.33489999    0.04959014    0.76038048    0.01250000
opls_136-331    C    0.36425992    0.05527008    0.85210971    -0.21060000
opls_515-332    C    0.35381003    0.10400993    0.68109974    -0.05010000
opls_515-333    C    0.31519002    0.09431006    0.68799037    -0.05110000
opls_145-334    C    0.32425997    0.14755995    0.74841053    0.00150000
opls_145-335    C    0.31594001    0.19068004    0.71458016    0.05370000
opls_916-336    C    0.27050993    0.22582005    0.70699974    0.15690000
opls_145-337    C    0.23585986    0.21560018    0.72625987    -0.23990000
opls_145-338    C    0.24511997    0.17111019    0.74537028    0.12030000
opls_700-339    C    0.28944003    0.13779002    0.75904038    -0.00360000
opls_281-340    O    0.17310025    0.32665994    0.74694000    -0.38120000
opls_281-341    O    0.27855011    0.36703004    0.83877027    -0.42240000
opls_281-342    O    0.14552019    0.47124998    0.65166993    -0.38120000
opls_281-343    O    0.59931011    0.64100988    0.63234000    -0.38120000
opls_281-344    O    0.55758015    0.79436019    0.65538988    -0.38140000
opls_281-345    O    0.46932000    0.74530014    0.83930025    -0.42230000
opls_272-346    O    0.17309988    0.32666012    0.24694000    -0.38120000
opls_281-347    O    0.27855019    0.36702987    0.33877027    -0.42240000
opls_272-348    O    0.14552011    0.47125015    0.15166993    -0.38120000
opls_281-349    O    0.59931002    0.64101006    0.13234000    -0.38110000
opls_281-350    O    0.55758023    0.79436001    0.15538988    -0.38150000
opls_281-351    O    0.46932009    0.74529997    0.33930025    -0.42230000
