#======================================================================
# Crystal Data Generated By AuToFF
#----------------------------------------------------------------------

data_AuToFF_phase_1

_cell_length_a                         33.2500
_cell_length_b                         34.4000
_cell_length_c                         3.9500
_cell_angle_alpha                      90.00
_cell_angle_beta                       80.00
_cell_angle_gamma                      90.00
_symmetry_space_group_name_H-M_alt     'P 1'
_symmetry_space_group_IT_number        1

loop_
_space_group_symop_operation_xyz
   'x, y, z'

loop_
   _atom_site_label
   _atom_site_type_symbol
   _atom_site_fract_x
   _atom_site_fract_y
   _atom_site_fract_z
   _atom_site_charge
opls_700-0    C    0.42057986    0.53567994    0.31937100    0.03540000
opls_700-1    C    0.46039012    0.53605988    0.40386993    0.03360000
opls_145-2    C    0.48109989    0.57122994    0.45531994    -0.13020000
opls_700-3    C    0.39603993    0.57087006    0.29703932    0.07240000
opls_145-4    C    0.58885993    0.39527994    0.87960123    -0.10910000
opls_145-5    C    0.61349008    0.36284012    0.88370921    -0.13180000
opls_145-6    C    0.65408007    0.36287006    0.70952110    0.20600000
opls_145-7    C    0.67007009    0.39732006    0.54630989    -0.13190000
opls_145-8    C    0.64530011    0.42955988    0.54263893    -0.10890000
opls_142-9    C    0.70916012    0.32267006    0.50266967    0.07670000
opls_700-10    C    0.73031999    0.28599012    0.50132005    -0.04550000
opls_145-11    C    0.71058994    0.25445988    0.68651076    -0.22120000
opls_166-12    C    0.72970011    0.21865988    0.68708917    0.22190000
opls_261-13    C    0.32955012    0.18957994    0.97605906    0.28980000
opls_261-14    C    0.34253998    0.14992994    0.82252139    -0.07570000
opls_261-15    C    0.38874001    0.14850988    0.71254939    -0.14510000
opls_700-16    C    0.92057986    0.03567994    0.31937100    0.03540000
opls_700-17    C    0.96039012    0.03605988    0.40386993    0.03360000
opls_145-18    C    0.98109989    0.07122994    0.45531994    -0.13020000
opls_700-19    C    0.89603993    0.07087006    0.29703932    0.07240000
opls_145-20    C    0.08885993    0.89527994    0.87960123    -0.10910000
opls_145-21    C    0.11349008    0.86284012    0.88370921    -0.13180000
opls_145-22    C    0.15408007    0.86287006    0.70952110    0.20600000
opls_145-23    C    0.17007009    0.89732006    0.54630989    -0.13190000
opls_145-24    C    0.14530011    0.92955988    0.54263893    -0.10890000
opls_142-25    C    0.20916012    0.82267006    0.50266967    0.07670000
opls_700-26    C    0.23031999    0.78599012    0.50132005    -0.04550000
opls_145-27    C    0.21058994    0.75445988    0.68651076    -0.22120000
opls_166-28    C    0.22970011    0.71865988    0.68708917    0.22190000
opls_261-29    C    0.82955012    0.68957994    0.97605906    0.28980000
opls_261-30    C    0.84253998    0.64992994    0.82252139    -0.07570000
opls_261-31    C    0.88874001    0.64850988    0.71254939    -0.14510000
opls_700-32    C    0.57942014    0.53567994    0.68062900    0.03540000
opls_700-33    C    0.53960988    0.53605988    0.59613007    0.03360000
opls_145-34    C    0.51890011    0.57122994    0.54468006    -0.13020000
opls_700-35    C    0.60396007    0.57087006    0.70296068    0.07240000
opls_145-36    C    0.41114007    0.39527994    0.12039877    -0.10910000
opls_145-37    C    0.38650992    0.36284012    0.11629079    -0.13180000
opls_145-38    C    0.34591993    0.36287006    0.29047890    0.20600000
opls_145-39    C    0.32992991    0.39732006    0.45369011    -0.13190000
opls_145-40    C    0.35469989    0.42955988    0.45736107    -0.10890000
opls_142-41    C    0.29083988    0.32267006    0.49733033    0.07670000
opls_700-42    C    0.26968001    0.28599012    0.49867995    -0.04550000
opls_145-43    C    0.28941006    0.25445988    0.31348924    -0.22120000
opls_166-44    C    0.27029989    0.21865988    0.31291083    0.22190000
opls_261-45    C    0.67044988    0.18957994    0.02394094    0.28980000
opls_261-46    C    0.65745997    0.14992994    0.17748118    -0.07570000
opls_261-47    C    0.61125999    0.14850988    0.28745061    -0.14510000
opls_700-48    C    0.07942014    0.03567994    0.68062900    0.03540000
opls_700-49    C    0.03960988    0.03605988    0.59613007    0.03360000
opls_145-50    C    0.01890011    0.07122994    0.54468006    -0.13020000
opls_700-51    C    0.10396007    0.07087006    0.70296068    0.07240000
opls_145-52    C    0.91114007    0.89527994    0.12039877    -0.10910000
opls_145-53    C    0.88650992    0.86284012    0.11629079    -0.13180000
opls_145-54    C    0.84591993    0.86287006    0.29047890    0.20600000
opls_145-55    C    0.82992991    0.89732006    0.45369011    -0.13190000
opls_145-56    C    0.85469989    0.92955988    0.45736107    -0.10890000
opls_142-57    C    0.79083988    0.82267006    0.49733033    0.07670000
opls_700-58    C    0.76968001    0.78599012    0.49867995    -0.04550000
opls_145-59    C    0.78941006    0.75445988    0.31348924    -0.22120000
opls_166-60    C    0.77029989    0.71865988    0.31291083    0.22190000
opls_261-61    C    0.17044988    0.68957994    0.02394094    0.28980000
opls_261-62    C    0.15745997    0.64992994    0.17748118    -0.07570000
opls_261-63    C    0.11125999    0.64850988    0.28745061    -0.14510000
opls_700-64    C    0.57942014    0.46432006    0.68062900    0.03540000
opls_700-65    C    0.53960988    0.46394012    0.59613007    0.03360000
opls_145-66    C    0.51890011    0.42877006    0.54468006    -0.13020000
opls_700-67    C    0.60396007    0.42912994    0.70296068    0.07240000
opls_145-68    C    0.41114007    0.60472006    0.12039877    -0.10910000
opls_145-69    C    0.38650992    0.63715988    0.11629079    -0.13180000
opls_145-70    C    0.34591993    0.63712994    0.29047890    0.20600000
opls_145-71    C    0.32992991    0.60267994    0.45369011    -0.13190000
opls_145-72    C    0.35469989    0.57044012    0.45736107    -0.10890000
opls_142-73    C    0.29083988    0.67732994    0.49733033    0.07670000
opls_700-74    C    0.26968001    0.71400988    0.49867995    -0.04550000
opls_145-75    C    0.28941006    0.74554012    0.31348924    -0.22120000
opls_166-76    C    0.27029989    0.78134012    0.31291083    0.22190000
opls_261-77    C    0.67044988    0.81042006    0.02394094    0.28980000
opls_261-78    C    0.65745997    0.85007006    0.17748118    -0.07570000
opls_261-79    C    0.61125999    0.85149012    0.28745061    -0.14510000
opls_700-80    C    0.07942014    0.96432006    0.68062900    0.03540000
opls_700-81    C    0.03960988    0.96394012    0.59613007    0.03360000
opls_145-82    C    0.01890011    0.92877006    0.54468006    -0.13020000
opls_700-83    C    0.10396007    0.92912994    0.70296068    0.07240000
opls_145-84    C    0.91114007    0.10472006    0.12039877    -0.10910000
opls_145-85    C    0.88650992    0.13715988    0.11629079    -0.13180000
opls_145-86    C    0.84591993    0.13712994    0.29047890    0.20600000
opls_145-87    C    0.82992991    0.10267994    0.45369011    -0.13190000
opls_145-88    C    0.85469989    0.07044012    0.45736107    -0.10890000
opls_142-89    C    0.79083988    0.17732994    0.49733033    0.07670000
opls_700-90    C    0.76968001    0.21400988    0.49867995    -0.04550000
opls_145-91    C    0.78941006    0.24554012    0.31348924    -0.22120000
opls_166-92    C    0.77029989    0.28134012    0.31291083    0.22190000
opls_261-93    C    0.17044988    0.31042006    0.02394094    0.28980000
opls_261-94    C    0.15745997    0.35007006    0.17748118    -0.07570000
opls_261-95    C    0.11125999    0.35149012    0.28745061    -0.14510000
opls_700-96    C    0.42057986    0.46432006    0.31937100    0.03540000
opls_700-97    C    0.46039012    0.46394012    0.40386993    0.03360000
opls_145-98    C    0.48109989    0.42877006    0.45531994    -0.13020000
opls_700-99    C    0.39603993    0.42912994    0.29703932    0.07240000
opls_145-100    C    0.58885993    0.60472006    0.87960123    -0.10910000
opls_145-101    C    0.61349008    0.63715988    0.88370921    -0.13180000
opls_145-102    C    0.65408007    0.63712994    0.70952110    0.20600000
opls_145-103    C    0.67007009    0.60267994    0.54630989    -0.13190000
opls_145-104    C    0.64530011    0.57044012    0.54263893    -0.10890000
opls_142-105    C    0.70916012    0.67732994    0.50266967    0.07670000
opls_700-106    C    0.73031999    0.71400988    0.50132005    -0.04550000
opls_145-107    C    0.71058994    0.74554012    0.68651076    -0.22120000
opls_166-108    C    0.72970011    0.78134012    0.68708917    0.22190000
opls_261-109    C    0.32955012    0.81042006    0.97605906    0.28980000
opls_261-110    C    0.34253998    0.85007006    0.82252139    -0.07570000
opls_261-111    C    0.38874001    0.85149012    0.71254939    -0.14510000
opls_700-112    C    0.92057986    0.96432006    0.31937100    0.03540000
opls_700-113    C    0.96039012    0.96394012    0.40386993    0.03360000
opls_145-114    C    0.98109989    0.92877006    0.45531994    -0.13020000
opls_700-115    C    0.89603993    0.92912994    0.29703932    0.07240000
opls_145-116    C    0.08885993    0.10472006    0.87960123    -0.10910000
opls_145-117    C    0.11349008    0.13715988    0.88370921    -0.13180000
opls_145-118    C    0.15408007    0.13712994    0.70952110    0.20600000
opls_145-119    C    0.17007009    0.10267994    0.54630989    -0.13190000
opls_145-120    C    0.14530011    0.07044012    0.54263893    -0.10890000
opls_142-121    C    0.20916012    0.17732994    0.50266967    0.07670000
opls_700-122    C    0.23031999    0.21400988    0.50132005    -0.04550000
opls_145-123    C    0.21058994    0.24554012    0.68651076    -0.22120000
opls_166-124    C    0.22970011    0.28134012    0.68708917    0.22190000
opls_261-125    C    0.82955012    0.31042006    0.97605906    0.28980000
opls_261-126    C    0.84253998    0.35007006    0.82252139    -0.07570000
opls_261-127    C    0.88874001    0.35149012    0.71254939    -0.14510000
opls_700-128    C    0.51976006    0.50000000    0.54969036    0.00060000
opls_145-129    C    0.59781988    0.50000000    0.72192988    -0.09160000
opls_700-130    C    0.01976006    0.00000000    0.54969036    0.00060000
opls_145-131    C    0.09781988    0.00000000    0.72192988    -0.09160000
opls_700-132    C    0.48023994    0.50000000    0.45030964    0.00060000
opls_145-133    C    0.40218012    0.50000000    0.27807012    -0.09160000
opls_700-134    C    0.98023994    0.00000000    0.45030964    0.00060000
opls_145-135    C    0.90218012    0.00000000    0.27807012    -0.09160000
opls_750-136    N    0.67535993    0.32810000    0.71377047    -0.25570000
opls_750-137    N    0.17535993    0.82810000    0.71377047    -0.25570000
opls_750-138    N    0.32464007    0.32810000    0.28622953    -0.25570000
opls_750-139    N    0.82464007    0.82810000    0.28622953    -0.25570000
opls_750-140    N    0.32464007    0.67190000    0.28622953    -0.25570000
opls_750-141    N    0.82464007    0.17190000    0.28622953    -0.25570000
opls_750-142    N    0.67535993    0.67190000    0.71377047    -0.25570000
opls_750-143    N    0.17535993    0.17190000    0.71377047    -0.25570000
opls_146-144    H    0.46607994    0.60044012    0.42188026    0.04330000
opls_146-145    H    0.55591002    0.39470000    0.02071985    0.04330000
opls_146-146    H    0.60086003    0.33565988    0.02982013    0.04330000
opls_146-147    H    0.70347013    0.39865988    0.41699079    0.04330000
opls_146-148    H    0.65820006    0.45730988    0.40784938    0.04330000
opls_144-149    H    0.72221985    0.34680000    0.31800082    0.02550000
opls_146-150    H    0.17841998    0.75812994    0.83906900    0.04330000
opls_146-151    H    0.96607994    0.10044012    0.42188026    0.04320000
opls_146-152    H    0.05591002    0.89470000    0.02071985    0.04330000
opls_146-153    H    0.10086003    0.83565988    0.02982013    0.04330000
opls_146-154    H    0.20347013    0.89865988    0.41699079    0.04330000
opls_146-155    H    0.15820006    0.95730988    0.40784938    0.04330000
opls_144-156    H    0.22221985    0.84680000    0.31800082    0.02550000
opls_146-157    H    0.67841998    0.25812994    0.83906900    0.04330000
opls_146-158    H    0.53392006    0.60044012    0.57811974    0.04330000
opls_146-159    H    0.44408998    0.39470000    0.97928015    0.04330000
opls_146-160    H    0.39913997    0.33565988    0.97017987    0.04330000
opls_146-161    H    0.29653017    0.39865988    0.58300921    0.04330000
opls_146-162    H    0.34179994    0.45730988    0.59215062    0.04330000
opls_144-163    H    0.27778015    0.34680000    0.68199918    0.02550000
opls_146-164    H    0.82158002    0.75812994    0.16093100    0.04330000
opls_146-165    H    0.03392006    0.10044012    0.57811974    0.04330000
opls_146-166    H    0.94408998    0.89470000    0.97928015    0.04330000
opls_146-167    H    0.89913997    0.83565988    0.97017987    0.04330000
opls_146-168    H    0.79653017    0.89865988    0.58300921    0.04330000
opls_146-169    H    0.84179994    0.95730988    0.59215062    0.04330000
opls_144-170    H    0.77778015    0.84680000    0.68199918    0.02550000
opls_146-171    H    0.32158002    0.25812994    0.16093100    0.04330000
opls_146-172    H    0.53392006    0.39955988    0.57811974    0.04330000
opls_146-173    H    0.44408998    0.60530000    0.97928015    0.04330000
opls_146-174    H    0.39913997    0.66434012    0.97017987    0.04330000
opls_146-175    H    0.29653017    0.60134012    0.58300921    0.04330000
opls_146-176    H    0.34179994    0.54269012    0.59215062    0.04330000
opls_144-177    H    0.27778015    0.65320000    0.68199918    0.02550000
opls_146-178    H    0.82158002    0.24187006    0.16093100    0.04330000
opls_146-179    H    0.03392006    0.89955988    0.57811974    0.04330000
opls_146-180    H    0.94408998    0.10530000    0.97928015    0.04330000
opls_146-181    H    0.89913997    0.16434012    0.97017987    0.04330000
opls_146-182    H    0.79653017    0.10134012    0.58300921    0.04330000
opls_146-183    H    0.84179994    0.04269012    0.59215062    0.04330000
opls_144-184    H    0.77778015    0.15320000    0.68199918    0.02550000
opls_146-185    H    0.32158002    0.74187006    0.16093100    0.04330000
opls_146-186    H    0.46607994    0.39955988    0.42188026    0.04330000
opls_146-187    H    0.55591002    0.60530000    0.02071985    0.04330000
opls_146-188    H    0.60086003    0.66434012    0.02982013    0.04330000
opls_146-189    H    0.70347013    0.60134012    0.41699079    0.04330000
opls_146-190    H    0.65820006    0.54269012    0.40784938    0.04330000
opls_144-191    H    0.72221985    0.65320000    0.31800082    0.02550000
opls_146-192    H    0.17841998    0.24187006    0.83906900    0.04330000
opls_146-193    H    0.96607994    0.89955988    0.42188026    0.04330000
opls_146-194    H    0.05591002    0.10530000    0.02071985    0.04330000
opls_146-195    H    0.10086003    0.16434012    0.02982013    0.04330000
opls_146-196    H    0.20347013    0.10134012    0.41699079    0.04330000
opls_146-197    H    0.15820006    0.04269012    0.40784938    0.04330000
opls_144-198    H    0.22221985    0.15320000    0.31800082    0.02550000
opls_146-199    H    0.67841998    0.74187006    0.83906900    0.04330000
opls_146-200    H    0.62959001    0.49900000    0.79324111    0.04320000
opls_146-201    H    0.12959001    0.99900000    0.79324111    0.04330000
opls_146-202    H    0.37040999    0.49900000    0.20675889    0.04330000
opls_146-203    H    0.87040999    0.99900000    0.20675889    0.04330000
opls_474-204    S    0.40759001    0.10379012    0.48774933    1.21910000
opls_474-205    S    0.90759001    0.60379012    0.48774933    1.21920000
opls_474-206    S    0.59240999    0.10379012    0.51225067    1.21920000
opls_474-207    S    0.09240999    0.60379012    0.51225067    1.21920000
opls_474-208    S    0.59240999    0.89620988    0.51225067    1.21890000
opls_474-209    S    0.09240999    0.39620988    0.51225067    1.21920000
opls_474-210    S    0.40759001    0.89620988    0.48774933    1.21920000
opls_474-211    S    0.90759001    0.39620988    0.48774933    1.21910000
opls_180-212    O    0.41796987    0.07082994    0.69903007    -0.49720000
opls_272-213    O    0.37716003    0.09522006    0.27416009    -0.52930000
MOF2_O_3-214    O    0.45070004    0.11985000    0.30368973    -0.46040000
opls_180-215    O    0.28800992    0.18627994    0.14587955    -0.21240000
opls_180-216    O    0.91796987    0.57082994    0.69903007    -0.49720000
opls_272-217    O    0.87716003    0.59522006    0.27416009    -0.52930000
MOF2_O_3-218    O    0.95070004    0.61985000    0.30368973    -0.46030000
opls_180-219    O    0.78800992    0.68627994    0.14587955    -0.21240000
opls_180-220    O    0.58203013    0.07082994    0.30096993    -0.49720000
opls_272-221    O    0.62283997    0.09522006    0.72583991    -0.52930000
MOF2_O_3-222    O    0.54929996    0.11985000    0.69631027    -0.46040000
opls_180-223    O    0.71199008    0.18627994    0.85412045    -0.21240000
opls_180-224    O    0.08203013    0.57082994    0.30096993    -0.49720000
opls_272-225    O    0.12283997    0.59522006    0.72583991    -0.52930000
MOF2_O_3-226    O    0.04929996    0.61985000    0.69631027    -0.46030000
opls_180-227    O    0.21199008    0.68627994    0.85412045    -0.21240000
opls_180-228    O    0.58203013    0.92917006    0.30096993    -0.49720000
opls_272-229    O    0.62283997    0.90477994    0.72583991    -0.52930000
MOF2_O_3-230    O    0.54929996    0.88015000    0.69631027    -0.46030000
opls_180-231    O    0.71199008    0.81372006    0.85412045    -0.21250000
opls_180-232    O    0.08203013    0.42917006    0.30096993    -0.49720000
opls_272-233    O    0.12283997    0.40477994    0.72583991    -0.52930000
MOF2_O_3-234    O    0.04929996    0.38015000    0.69631027    -0.46030000
opls_180-235    O    0.21199008    0.31372006    0.85412045    -0.21240000
opls_180-236    O    0.41796987    0.92917006    0.69903007    -0.49720000
opls_272-237    O    0.37716003    0.90477994    0.27416009    -0.52930000
MOF2_O_3-238    O    0.45070004    0.88015000    0.30368973    -0.46030000
opls_180-239    O    0.28800992    0.81372006    0.14587955    -0.21240000
opls_180-240    O    0.91796987    0.42917006    0.69903007    -0.49720000
opls_272-241    O    0.87716003    0.40477994    0.27416009    -0.52930000
MOF2_O_3-242    O    0.95070004    0.38015000    0.30368973    -0.46040000
opls_180-243    O    0.78800992    0.31372006    0.14587955    -0.21240000
opls_405-244    Na    0.47326015    0.10165000    0.79043905    0.63800000
opls_405-245    Na    0.97326015    0.60165000    0.79043905    0.63800000
opls_405-246    Na    0.52673985    0.10165000    0.20956095    0.63800000
opls_405-247    Na    0.02673985    0.60165000    0.20956095    0.63800000
opls_405-248    Na    0.52673985    0.89835000    0.20956095    0.63800000
opls_405-249    Na    0.02673985    0.39835000    0.20956095    0.63790000
opls_405-250    Na    0.47326015    0.89835000    0.79043905    0.63800000
opls_405-251    Na    0.97326015    0.39835000    0.79043905    0.63800000
