#======================================================================
# Crystal Data Generated By AuToFF
#----------------------------------------------------------------------

data_AuToFF_phase_1

_cell_length_a                         38.0453
_cell_length_b                         38.0453
_cell_length_c                         3.4986
_cell_angle_alpha                      90.00
_cell_angle_beta                       90.00
_cell_angle_gamma                      120.00
_symmetry_space_group_name_H-M_alt     'P 1'
_symmetry_space_group_IT_number        1

loop_
_space_group_symop_operation_xyz
   'x, y, z'

loop_
   _atom_site_label
   _atom_site_type_symbol
   _atom_site_fract_x
   _atom_site_fract_y
   _atom_site_fract_z
   _atom_site_charge
opls_145-0    C    0.97709005    0.45806994    0.00000000    -0.19520000
opls_145-1    C    0.01976992    0.47781002    0.00000000    -0.19520000
opls_700-2    C    0.04486000    0.52074984    0.00000000    0.06210000
opls_700-3    C    0.91147994    0.45906999    0.00000000    0.05260000
opls_145-4    C    0.11033991    0.51946996    0.00000000    -0.19550000
opls_145-5    C    0.15297993    0.53908984    0.00000000    -0.22770000
opls_916-6    C    0.17672999    0.58168003    0.00000000    0.17750000
opls_145-7    C    0.15619000    0.60392980    0.00000000    -0.22770000
opls_145-8    C    0.11350981    0.58403980    0.00000000    -0.19470000
opls_142-9    C    0.75240998    0.36299009    0.00000000    0.10000000
opls_700-10    C    0.70989986    0.34898993    0.00000000    -0.25090000
opls_280-11    C    0.69353988    0.37544995    0.00000000    0.24840000
opls_145-12    C    0.54192983    0.51901986    0.00000000    -0.19520000
opls_145-13    C    0.52218992    0.54196982    0.00000000    -0.19520000
opls_700-14    C    0.47925001    0.52410997    0.00000000    0.06210000
opls_700-15    C    0.54093000    0.45240984    0.00000000    0.05260000
opls_145-16    C    0.48052983    0.59086991    0.00000000    -0.19550000
opls_145-17    C    0.46090986    0.61387997    0.00000000    -0.22770000
opls_916-18    C    0.41831985    0.59504981    0.00000000    0.17750000
opls_145-19    C    0.39606986    0.55224990    0.00000000    -0.22770000
opls_145-20    C    0.41595993    0.52946990    0.00000000    -0.19470000
opls_142-21    C    0.63701012    0.38941004    0.00000000    0.10000000
opls_700-22    C    0.65101003    0.36090985    0.00000000    -0.14880000
opls_280-23    C    0.62455002    0.31808991    0.00000000    0.24840000
opls_145-24    C    0.48097996    0.02290990    0.00000000    -0.19520000
opls_145-25    C    0.45803003    0.98022988    0.00000000    -0.19520000
opls_700-26    C    0.47587985    0.95513989    0.00000000    0.06200000
opls_700-27    C    0.54758991    0.08851986    0.00000000    0.05260000
opls_145-28    C    0.40912984    0.88965983    0.00000000    -0.19550000
opls_145-29    C    0.38611004    0.84701987    0.00000000    -0.22770000
opls_916-30    C    0.40495000    0.82326986    0.00000000    0.17750000
opls_145-31    C    0.44774998    0.84382000    0.00000000    -0.22770000
opls_145-32    C    0.47053011    0.88649001    0.00000000    -0.19470000
opls_142-33    C    0.61058988    0.24758985    0.00000000    0.10000000
opls_700-34    C    0.63908996    0.29009991    0.00000000    -0.25090000
opls_280-35    C    0.68190994    0.30645984    0.00000000    0.24840000
opls_145-36    C    0.02290995    0.54193006    0.00000000    -0.19520000
opls_145-37    C    0.98023008    0.52218998    0.00000000    -0.19520000
opls_700-38    C    0.95513985    0.47924985    0.00000000    0.06210000
opls_700-39    C    0.08852006    0.54093001    0.00000000    0.05260000
opls_145-40    C    0.88966009    0.48053004    0.00000000    -0.19550000
opls_145-41    C    0.84701992    0.46090985    0.00000000    -0.22770000
opls_916-42    C    0.82327001    0.41831997    0.00000000    0.17750000
opls_145-43    C    0.84381984    0.39606989    0.00000000    -0.22770000
opls_145-44    C    0.88649004    0.41595990    0.00000000    -0.19470000
opls_142-45    C    0.24759002    0.63700991    0.00000000    0.10000000
opls_700-46    C    0.29010014    0.65101007    0.00000000    -0.25090000
opls_280-47    C    0.30646012    0.62455005    0.00000000    0.24840000
opls_145-48    C    0.45807002    0.48097984    0.00000000    -0.19520000
opls_145-49    C    0.47780993    0.45802988    0.00000000    -0.19520000
opls_700-50    C    0.52074999    0.47589003    0.00000000    0.06210000
opls_700-51    C    0.45906985    0.54758985    0.00000000    0.05260000
opls_145-52    C    0.51947017    0.40913009    0.00000000    -0.19550000
opls_145-53    C    0.53909013    0.38611002    0.00000000    -0.22770000
opls_916-54    C    0.58168000    0.40494989    0.00000000    0.17750000
opls_145-55    C    0.60392999    0.44774980    0.00000000    -0.22770000
opls_145-56    C    0.58403991    0.47052980    0.00000000    -0.19470000
opls_142-57    C    0.36298987    0.61057994    0.00000000    0.10000000
opls_700-58    C    0.34898982    0.63908984    0.00000000    -0.25090000
opls_280-59    C    0.37544982    0.68190979    0.00000000    0.24840000
opls_145-60    C    0.51901988    0.97708980    0.00000000    -0.19520000
opls_145-61    C    0.54196997    0.01977012    0.00000000    -0.19520000
opls_700-62    C    0.52412015    0.04486011    0.00000000    0.06200000
opls_700-63    C    0.45240994    0.91147984    0.00000000    0.05260000
opls_145-64    C    0.59087001    0.11033987    0.00000000    -0.19550000
opls_145-65    C    0.61387997    0.15298013    0.00000000    -0.22760000
opls_916-66    C    0.59504984    0.17672984    0.00000000    0.17750000
opls_145-67    C    0.55225002    0.15618000    0.00000000    -0.22760000
opls_145-68    C    0.52946989    0.11350999    0.00000000    -0.19470000
opls_142-69    C    0.38940997    0.75240984    0.00000000    0.10000000
opls_700-70    C    0.36090989    0.70989978    0.00000000    -0.25090000
opls_280-71    C    0.31808991    0.69353986    0.00000000    0.24840000
opls_238-72    N    0.78235007    0.40243989    0.00000000    -0.32100000
opls_238-73    N    0.59755986    0.37989996    0.00000000    -0.32100000
opls_238-74    N    0.62009989    0.21764983    0.00000000    -0.32100000
opls_238-75    N    0.21764978    0.59755981    0.00000000    -0.32100000
opls_238-76    N    0.40244014    0.62010004    0.00000000    -0.32100000
opls_238-77    N    0.37989996    0.78234987    0.00000000    -0.32100000
opls_146-78    H    0.96278008    0.42723002    0.00000000    0.20870000
opls_146-79    H    0.03167011    0.45909003    0.00000000    0.20830000
opls_146-80    H    0.09603996    0.48865006    0.00000000    0.20840000
opls_146-81    H    0.16666991    0.52176993    0.00000000    0.20820000
opls_146-82    H    0.17180990    0.63489993    0.00000000    0.20820000
opls_146-83    H    0.10160000    0.60273004    0.00000000    0.20840000
opls_144-84    H    0.76137001    0.34182990    0.00000000    0.10200000
opls_910-85    H    0.77342014    0.42206008    0.00000000    0.24970000
opls_146-86    H    0.57277012    0.53555005    0.00000000    0.20860000
opls_146-87    H    0.54090988    0.57257999    0.00000000    0.20840000
opls_146-88    H    0.51134999    0.60739980    0.00000000    0.20840000
opls_146-89    H    0.47823003    0.64490989    0.00000000    0.20830000
opls_146-90    H    0.36510008    0.53691006    0.00000000    0.20820000
opls_146-91    H    0.39727010    0.49887004    0.00000000    0.20850000
opls_144-92    H    0.65816997    0.41954007    0.00000000    0.10170000
opls_910-93    H    0.57793996    0.35137003    0.00000000    0.24970000
opls_146-94    H    0.46445006    0.03721994    0.00000000    0.20850000
opls_146-95    H    0.42742001    0.96832998    0.00000000    0.20850000
opls_146-96    H    0.39259992    0.90395985    0.00000000    0.20840000
opls_146-97    H    0.35508992    0.83331988    0.00000000    0.20830000
opls_146-98    H    0.46309002    0.82819001    0.00000000    0.20820000
opls_146-99    H    0.50112989    0.89839991    0.00000000    0.20840000
opls_144-100    H    0.58046002    0.23863003    0.00000000    0.10170000
opls_910-101    H    0.64862993    0.22657990    0.00000000    0.24980000
opls_146-102    H    0.03721992    0.57276998    0.00000000    0.20850000
opls_146-103    H    0.96832989    0.54090997    0.00000000    0.20830000
opls_146-104    H    0.90396004    0.51134994    0.00000000    0.20840000
opls_146-105    H    0.83333009    0.47823007    0.00000000    0.20820000
opls_146-106    H    0.82819010    0.36510007    0.00000000    0.20820000
opls_146-107    H    0.89840998    0.39726996    0.00000000    0.20840000
opls_144-108    H    0.23862983    0.65816979    0.00000000    0.10200000
opls_910-109    H    0.22657986    0.57793992    0.00000000    0.24970000
opls_146-110    H    0.42722988    0.46444995    0.00000000    0.20850000
opls_146-111    H    0.45909012    0.42742001    0.00000000    0.20840000
opls_146-112    H    0.48864986    0.39259990    0.00000000    0.20840000
opls_146-113    H    0.52176997    0.35509011    0.00000000    0.20830000
opls_146-114    H    0.63489992    0.46308994    0.00000000    0.20820000
opls_146-115    H    0.60272990    0.50112996    0.00000000    0.20840000
opls_144-116    H    0.34183003    0.58045993    0.00000000    0.10200000
opls_910-117    H    0.42206004    0.64862997    0.00000000    0.24970000
opls_146-118    H    0.53554979    0.96277976    0.00000000    0.20850000
opls_146-119    H    0.57257999    0.03167002    0.00000000    0.20850000
opls_146-120    H    0.60739992    0.09603984    0.00000000    0.20840000
opls_146-121    H    0.64491007    0.16667011    0.00000000    0.20830000
opls_146-122    H    0.53690998    0.17180999    0.00000000    0.20820000
opls_146-123    H    0.49887009    0.10159007    0.00000000    0.20840000
opls_144-124    H    0.41953998    0.76136997    0.00000000    0.10170000
opls_910-125    H    0.35136992    0.77341979    0.00000000    0.24980000
opls_281-126    O    0.71718001    0.41315004    0.00000000    -0.44730000
opls_281-127    O    0.58685003    0.30402996    0.00000000    -0.44730000
opls_281-128    O    0.69596996    0.28282000    0.00000000    -0.44730000
opls_281-129    O    0.28281998    0.58683995    0.00000000    -0.47270000
opls_281-130    O    0.41314997    0.69597004    0.00000000    -0.44730000
opls_281-131    O    0.30403004    0.71718000    0.00000000    -0.44730000
