#======================================================================
# Crystal Data Generated By AuToFF
#----------------------------------------------------------------------

data_AuToFF_phase_1

_cell_length_a                         22.6557
_cell_length_b                         22.7056
_cell_length_c                         7.1394
_cell_angle_alpha                      91.15
_cell_angle_beta                       88.87
_cell_angle_gamma                      60.23
_symmetry_space_group_name_H-M_alt     'P 1'
_symmetry_space_group_IT_number        1

loop_
_space_group_symop_operation_xyz
   'x, y, z'

loop_
   _atom_site_label
   _atom_site_type_symbol
   _atom_site_fract_x
   _atom_site_fract_y
   _atom_site_fract_z
   _atom_site_charge
opls_700-0    C    0.02975025    0.04070991    0.01383977    0.00030000
opls_700-1    C    0.95808016    0.07086009    0.01720965    0.08770000
opls_700-2    C    0.92787026    0.02950980    0.00922932    0.00120000
opls_700-3    C    0.96964972    0.95736015    0.00339932    0.07410000
opls_700-4    C    0.04081979    0.92822011    0.01163056    0.00460000
opls_700-5    C    0.07119994    0.96973038    0.02060055    0.07570000
opls_142-6    C    0.05621017    0.08736983    0.98087973    0.06960000
opls_142-7    C    0.85495008    0.05447000    0.99839076    0.07990000
opls_142-8    C    0.08837977    0.85457018    0.98475004    0.06820000
opls_145-9    C    0.73695977    0.13825025    0.99146036    0.17020000
opls_700-10    C    0.69451981    0.21008991    0.98198013    0.05140000
opls_700-11    C    0.70613974    0.09635006    0.98976000    0.04970000
opls_700-12    C    0.62366977    0.23993025    0.96830016    0.05720000
opls_700-13    C    0.63519996    0.12654012    0.97885976    0.05300000
opls_145-14    C    0.59367998    0.19807024    0.97063973    0.11360000
opls_145-15    C    0.13691009    0.12564010    0.00941015    0.10520000
opls_700-16    C    0.20889993    0.09525987    0.99962993    0.05540000
opls_700-17    C    0.09545024    0.19766993    0.01046989    0.05130000
opls_700-18    C    0.23995015    0.13543002    0.00345959    0.05980000
opls_700-19    C    0.12668976    0.23781009    0.02190981    0.07120000
opls_145-20    C    0.19874002    0.20720015    0.01776055    0.10520000
opls_145-21    C    0.12639984    0.73762028    0.02211027    0.10540000
opls_700-22    C    0.09616992    0.69584017    0.01554994    0.05710000
opls_700-23    C    0.19826974    0.70782012    0.00228070    0.05660000
opls_700-24    C    0.13641994    0.62532034    0.98464070    0.05680000
opls_700-25    C    0.23860994    0.63694040    0.97873080    0.07170000
opls_145-26    C    0.20833973    0.59516014    0.97391008    0.10530000
opls_142-27    C    0.24460986    0.48030022    0.03342964    0.07330000
opls_700-28    C    0.37511011    0.26366020    0.00333063    0.07260000
opls_142-29    C    0.27669004    0.24644992    0.95410995    0.07330000
opls_142-30    C    0.47838996    0.27606000    0.04501955    0.06800000
opls_700-31    C    0.36285023    0.37726981    0.02912057    0.07950000
opls_700-32    C    0.29177969    0.40614023    0.01451963    -0.00320000
opls_700-33    C    0.30394977    0.29317025    0.98676019    -0.00850000
opls_700-34    C    0.26205982    0.36432013    0.99297989    0.07850000
opls_700-35    C    0.40438996    0.30559997    0.02237941    0.00700000
opls_148-36    C    0.25240992    0.01906025    0.98101009    -0.42880000
opls_148-37    C    0.72488995    0.25599015    0.98834981    -0.42890000
opls_148-38    C    0.02012984    0.72701022    0.03961008    -0.43300000
opls_148-39    C    0.91596972    0.14670017    0.03828960    -0.44600000
opls_148-40    C    0.93767980    0.91331015    0.98161987    -0.43380000
opls_148-41    C    0.14681003    0.93724014    0.03856996    -0.44590000
opls_148-42    C    0.74644025    0.02007983    0.00074014    -0.43090000
opls_148-43    C    0.58185983    0.31553000    0.94370033    -0.43100000
opls_148-44    C    0.01912029    0.23104983    0.00501977    -0.42940000
opls_148-45    C    0.31637974    0.10085015    0.00784996    -0.43310000
opls_148-46    C    0.23277002    0.74994024    0.01295945    -0.43310000
opls_148-47    C    0.10123988    0.58456008    0.95275022    -0.43050000
opls_148-48    C    0.41765983    0.18795994    0.01741991    -0.39540000
opls_148-49    C    0.08552000    0.31416011    0.03842978    -0.43110000
opls_148-50    C    0.39504973    0.42106017    0.05087058    -0.42760000
opls_148-51    C    0.31498991    0.60464016    0.96080064    -0.43120000
opls_148-52    C    0.60140008    0.08359014    0.97891023    -0.43100000
opls_148-53    C    0.18672984    0.39729024    0.96543072    -0.43380000
opls_700-54    C    0.96994994    0.95954993    0.49433050    0.00130000
opls_700-55    C    0.04139977    0.92893028    0.50670962    0.06910000
opls_700-56    C    0.07173998    0.96998038    0.52118019    0.00080000
opls_700-57    C    0.03102992    0.04179000    0.52342023    0.07870000
opls_700-58    C    0.95960996    0.07171998    0.51950085    0.00490000
opls_700-59    C    0.92876977    0.03071003    0.50356963    0.07280000
opls_142-60    C    0.94277000    0.91319033    0.46171951    0.07020000
opls_142-61    C    0.14532967    0.94110038    0.54336054    0.07080000
opls_142-62    C    0.91254997    0.14555007    0.54161953    0.07040000
opls_145-63    C    0.26126972    0.86041037    0.48169066    0.14480000
opls_700-64    C    0.30304980    0.78871013    0.47984031    0.05680000
opls_700-65    C    0.29146014    0.90252994    0.48360969    0.05140000
opls_700-66    C    0.37431024    0.75845994    0.47895018    0.05690000
opls_700-67    C    0.36252985    0.87211017    0.49000041    0.05700000
opls_145-68    C    0.40434004    0.80039003    0.48353961    0.12200000
opls_145-69    C    0.86268000    0.87600006    0.51401008    0.12200000
opls_700-70    C    0.79092003    0.90570003    0.50743013    0.05300000
opls_700-71    C    0.90447003    0.80421025    0.51397083    0.05680000
opls_700-72    C    0.76075977    0.86465013    0.49317964    0.05130000
opls_700-73    C    0.87403982    0.76341004    0.50734042    0.05680000
opls_145-74    C    0.80221969    0.79275030    0.49783075    0.14110000
opls_145-75    C    0.87657009    0.26155996    0.48729077    0.14440000
opls_700-76    C    0.90636025    0.30379982    0.48338961    0.05680000
opls_700-77    C    0.80434977    0.29129007    0.48932054    0.05170000
opls_700-78    C    0.86536982    0.37477989    0.48274059    0.05530000
opls_700-79    C    0.76365994    0.36227990    0.49592993    0.05530000
opls_145-80    C    0.79357984    0.40431011    0.49035085    0.11540000
opls_142-81    C    0.75375992    0.52134988    0.55549995    0.07330000
opls_700-82    C    0.62404998    0.73644004    0.49769057    0.07940000
opls_142-83    C    0.72299000    0.75294998    0.44809982    0.07580000
opls_142-84    C    0.51990965    0.72384031    0.54645006    0.07560000
opls_700-85    C    0.63647001    0.62338997    0.52573036    0.07900000
opls_700-86    C    0.70796000    0.59484036    0.52731017    0.00350000
opls_700-87    C    0.69580005    0.70689026    0.48798044    0.00280000
opls_700-88    C    0.73789013    0.63643997    0.51079020    0.07880000
opls_700-89    C    0.59435980    0.69480994    0.51832056    0.00330000
opls_148-90    C    0.74742972    0.98201040    0.51640993    -0.42890000
opls_148-91    C    0.27052983    0.74473995    0.48035056    -0.42160000
opls_148-92    C    0.98265976    0.27226019    0.47996086    -0.43570000
opls_148-93    C    0.08263991    0.85324010    0.51663982    -0.44420000
opls_148-94    C    0.06467003    0.08445007    0.52477996    -0.44590000
opls_148-95    C    0.85325009    0.06450001    0.48139068    -0.44600000
opls_148-96    C    0.24974967    0.97835035    0.46206014    -0.43100000
opls_148-97    C    0.41680961    0.68214038    0.46459035    -0.43100000
opls_148-98    C    0.98013012    0.77136992    0.53808985    -0.42150000
opls_148-99    C    0.68452973    0.89830027    0.48246024    -0.42880000
opls_148-100    C    0.77122987    0.24818026    0.46579027    -0.42890000
opls_148-101    C    0.89872984    0.41765998    0.46307082    -0.42820000
opls_148-102    C    0.58107000    0.81250022    0.50353038    -0.44560000
opls_148-103    C    0.91802981    0.68733030    0.50774974    -0.42890000
opls_148-104    C    0.60558998    0.57820008    0.52999037    -0.44680000
opls_148-105    C    0.68718006    0.39647994    0.51098084    -0.42980000
opls_148-106    C    0.39648022    0.91458999    0.50654000    -0.43330000
opls_148-107    C    0.81395984    0.60565992    0.50667037    -0.39530000
opls_144-108    H    0.84428977    0.01326015    0.98184976    0.12060000
opls_144-109    H    0.13106004    0.84264028    0.88658063    0.07910000
opls_144-110    H    0.49354988    0.30107987    0.15247015    0.06210000
opls_144-111    H    0.02362003    0.12886000    0.89065980    0.08020000
opls_144-112    H    0.20075986    0.49525028    0.13132991    0.06220000
opls_144-113    H    0.30408969    0.20691017    0.84303014    0.06220000
opls_144-114    H    0.15941011    0.97053995    0.63785029    0.07420000
opls_144-115    H    0.86707015    0.15878008    0.63002976    0.06490000
opls_144-116    H    0.50479992    0.69919994    0.65382076    0.06010000
opls_144-117    H    0.97356995    0.87074992    0.36163947    0.06480000
opls_144-118    H    0.79309983    0.50962998    0.65981056    0.06180000
opls_144-119    H    0.69301983    0.79236014    0.34829032    0.06550000
opls_702-120    H    0.97654968    0.85989025    0.97286996    0.11840000
opls_702-121    H    0.90751007    0.92542999    0.85492004    0.12220000
opls_702-122    H    0.90358976    0.91979008    0.10188974    0.12500000
opls_702-123    H    0.17366020    0.92660001    0.90097970    0.13090000
opls_702-124    H    0.16724980    0.88958022    0.11173023    0.13010000
opls_702-125    H    0.15921991    0.97096033    0.11809992    0.12590000
opls_702-126    H    0.86659995    0.16106014    0.10413959    0.13160000
opls_702-127    H    0.90537998    0.17153018    0.90231980    0.12660000
opls_702-128    H    0.94135997    0.16716985    0.12476958    0.13390000
opls_702-129    H    0.09651967    0.82853038    0.37609041    0.12600000
opls_702-130    H    0.05444012    0.83301006    0.59193080    0.13070000
opls_702-131    H    0.12992990    0.83812994    0.58805067    0.12210000
opls_702-132    H    0.83883995    0.02907009    0.42138050    0.11970000
opls_702-133    H    0.83567976    0.10752004    0.38902042    0.12550000
opls_702-134    H    0.82514985    0.08361988    0.61685023    0.12390000
opls_702-135    H    0.08273027    0.08644986    0.38185032    0.12660000
opls_702-136    H    0.10901015    0.06438988    0.61354063    0.12650000
opls_702-137    H    0.02896971    0.13651012    0.57148024    0.11060000
opls_702-138    H    0.43986016    0.16241978    0.88066932    0.12420000
opls_702-139    H    0.38744994    0.16669027    0.07471064    0.12670000
opls_702-140    H    0.46014981    0.17479010    0.10977054    0.12680000
opls_702-141    H    0.41474009    0.42705018    0.91450968    0.12840000
opls_702-142    H    0.43817991    0.39898993    0.14420946    0.12500000
opls_702-143    H    0.35831981    0.47196997    0.10486011    0.12320000
opls_702-144    H    0.17206994    0.36045027    0.91897995    0.12210000
opls_702-145    H    0.17063000    0.43703029    0.86184062    0.12460000
opls_702-146    H    0.15737985    0.42164995    0.09662045    0.12000000
opls_702-147    H    0.78055992    0.99594988    0.87715927    0.12510000
opls_702-148    H    0.71317003    0.99807018    0.00889990    0.12140000
opls_702-149    H    0.77813996    0.00394990    0.12457053    0.12100000
opls_702-150    H    0.56660976    0.34445013    0.07868048    0.12530000
opls_702-151    H    0.53516022    0.32906985    0.86935977    0.12680000
opls_702-152    H    0.61092973    0.33402022    0.86401058    0.12660000
opls_702-153    H    0.99854994    0.20971028    0.10663056    0.12660000
opls_702-154    H    0.00250996    0.22474994    0.86605016    0.12430000
opls_702-155    H    0.99410998    0.28573026    0.03483983    0.12750000
opls_702-156    H    0.34058985    0.09596006    0.86874018    0.12120000
opls_702-157    H    0.33800988    0.04948005    0.06051061    0.12690000
opls_702-158    H    0.33218009    0.12930009    0.10000014    0.12730000
opls_702-159    H    0.23280990    0.77299018    0.87889046    0.12420000
opls_702-160    H    0.28605987    0.71950008    0.05013044    0.13300000
opls_702-161    H    0.20771994    0.79141028    0.11868025    0.12450000
opls_702-162    H    0.08949972    0.56690007    0.08356007    0.11990000
opls_702-163    H    0.13272989    0.53946008    0.86277981    0.12630000
opls_702-164    H    0.05272961    0.61494033    0.88434058    0.12420000
opls_702-165    H    0.23078001    0.00712006    0.59637023    0.12420000
opls_702-166    H    0.20525990    0.99195997    0.37702960    0.12450000
opls_702-167    H    0.27968985    0.99777011    0.39186043    0.12680000
opls_702-168    H    0.46410985    0.66566013    0.38209003    0.12430000
opls_702-169    H    0.38908993    0.65968030    0.39807031    0.12740000
opls_702-170    H    0.43102007    0.65947023    0.60311980    0.12560000
opls_702-171    H    0.00887979    0.76603008    0.40719029    0.12490000
opls_702-172    H    0.00110990    0.72033002    0.59233030    0.12670000
opls_702-173    H    0.99164012    0.80141009    0.63765965    0.12420000
opls_702-174    H    0.66364982    0.87514017    0.57694017    0.12420000
opls_702-175    H    0.66858979    0.89419018    0.34038989    0.13100000
opls_702-176    H    0.65969978    0.95248034    0.51992980    0.12470000
opls_702-177    H    0.76335987    0.22845025    0.59771033    0.12370000
opls_702-178    H    0.80254980    0.20418025    0.37199020    0.12650000
opls_702-179    H    0.72161025    0.27640984    0.40235976    0.13070000
opls_702-180    H    0.86793003    0.46210021    0.37954019    0.12540000
opls_702-181    H    0.94907008    0.38908015    0.39336033    0.12690000
opls_702-182    H    0.90634970    0.43617019    0.59923967    0.12840000
opls_702-183    H    0.53132014    0.82857008    0.56933972    0.12300000
opls_702-184    H    0.57120982    0.83366037    0.36275949    0.12690000
opls_702-185    H    0.60578011    0.83563016    0.58252065    0.12730000
opls_702-186    H    0.63143984    0.53723028    0.62789064    0.12680000
opls_702-187    H    0.61211021    0.55307999    0.39173006    0.12410000
opls_702-188    H    0.55122003    0.60570023    0.56687960    0.12420000
opls_702-189    H    0.83067980    0.62372030    0.38628976    0.12300000
opls_702-190    H    0.84058979    0.55034036    0.49629019    0.13380000
opls_702-191    H    0.83044989    0.62164024    0.63196001    0.12150000
opls_702-192    H    0.28605986    0.00375024    0.85491022    0.12420000
opls_702-193    H    0.22103973    0.99510021    0.97182003    0.11970000
opls_702-194    H    0.28568978    0.99753013    0.10023003    0.12070000
opls_702-195    H    0.71931011    0.28172996    0.85544010    0.12770000
opls_702-196    H    0.77899965    0.22743034    0.01603075    0.11550000
opls_702-197    H    0.69915985    0.29646020    0.09713070    0.12430000
opls_702-198    H    0.00655002    0.69551017    0.12488032    0.12490000
opls_702-199    H    0.99528973    0.73329024    0.90473928    0.12500000
opls_702-200    H    0.99789978    0.77744009    0.10745060    0.12130000
opls_702-201    H    0.03748012    0.33223007    0.11832981    0.12690000
opls_702-202    H    0.07272007    0.33738982    0.90021994    0.12400000
opls_702-203    H    0.11528018    0.33352005    0.10902059    0.12650000
opls_702-204    H    0.33050016    0.62902007    0.85423036    0.12110000
opls_702-205    H    0.33781981    0.55073019    0.92196014    0.11730000
opls_702-206    H    0.33682977    0.60887002    0.09371036    0.12420000
opls_702-207    H    0.60814991    0.05752000    0.11194050    0.13570000
opls_702-208    H    0.62226000    0.04412003    0.86617072    0.12410000
opls_702-209    H    0.54696998    0.11527983    0.95879049    0.12210000
opls_702-210    H    0.70481978    0.99944029    0.61885057    0.12450000
opls_702-211    H    0.72525966    0.00242024    0.38082001    0.12600000
opls_702-212    H    0.77783018    0.00505000    0.55732086    0.13000000
opls_702-213    H    0.28146008    0.71539993    0.60842974    0.12450000
opls_702-214    H    0.28910009    0.70765023    0.36197029    0.12150000
opls_702-215    H    0.21545991    0.77566037    0.47060959    0.11970000
opls_702-216    H    0.00128973    0.29099012    0.36555043    0.12470000
opls_702-217    H    0.00720988    0.21725031    0.46039062    0.12210000
opls_702-218    H    0.00042982    0.28394024    0.61052961    0.12520000
opls_702-219    H    0.95329012    0.66813004    0.38453052    0.12120000
opls_702-220    H    0.88665011    0.66331003    0.50578024    0.12300000
opls_702-221    H    0.94942985    0.67043039    0.63229083    0.12770000
opls_702-222    H    0.66922019    0.36139991    0.54845040    0.12700000
opls_702-223    H    0.66384999    0.42037007    0.37918974    0.13090000
opls_702-224    H    0.66712985    0.43731009    0.61917999    0.12280000
opls_702-225    H    0.42073983    0.91599030    0.37263082    0.11990000
opls_702-226    H    0.43686017    0.89337999    0.60849002    0.12680000
opls_702-227    H    0.36079998    0.96688042    0.55422013    0.12680000
opls_750-228    N    0.80622992    0.11711023    0.00312036    -0.29950000
opls_750-229    N    0.08119981    0.80716015    0.05845981    -0.29180000
opls_750-230    N    0.11251989    0.08056008    0.03943065    -0.28630000
opls_750-231    N    0.25342977    0.52493997    0.94888972    -0.29350000
opls_750-232    N    0.22459018    0.25159002    0.04385046    -0.29010000
opls_750-233    N    0.52359005    0.22367000    0.95025085    -0.29070000
opls_750-234    N    0.19133999    0.88516002    0.46340024    -0.28880000
opls_750-235    N    0.92255010    0.19156007    0.46976993    -0.28960000
opls_750-236    N    0.88746000    0.92122007    0.53986030    -0.28880000
opls_750-237    N    0.74829996    0.47396997    0.47051988    -0.28720000
opls_750-238    N    0.77697003    0.74782993    0.51961019    -0.28870000
opls_750-239    N    0.47477973    0.77518032    0.46021960    -0.29350000
