#======================================================================
# Crystal Data Generated By AuToFF
#----------------------------------------------------------------------

data_AuToFF_phase_1

_cell_length_a                         37.5000
_cell_length_b                         37.5000
_cell_length_c                         3.4000
_cell_angle_alpha                      90.00
_cell_angle_beta                       90.00
_cell_angle_gamma                      120.00
_symmetry_space_group_name_H-M_alt     'P 1'
_symmetry_space_group_IT_number        1

loop_
_space_group_symop_operation_xyz
   'x, y, z'

loop_
   _atom_site_label
   _atom_site_type_symbol
   _atom_site_fract_x
   _atom_site_fract_y
   _atom_site_fract_z
   _atom_site_charge
opls_146-0    H    0.56767019    0.49744011    0.81317941    0.11230000
opls_146-1    H    0.53906005    0.58934997    0.45167059    0.11190000
opls_146-2    H    0.44139988    0.46700990    0.74235882    0.11350000
opls_146-3    H    0.49675007    0.60521001    0.76447941    0.11390000
opls_146-4    H    0.37055991    0.57312996    0.62539118    0.11160000
opls_146-5    H    0.40726990    0.48534993    0.33192941    0.11350000
opls_144-6    H    0.62373002    0.57180991    0.55492059    0.09830000
opls_144-7    H    0.47793007    0.65885001    0.84052059    0.09860000
opls_146-8    H    0.75115987    0.68318001    0.96422941    0.11740000
opls_146-9    H    0.68208998    0.74419009    0.23305882    0.11610000
opls_146-10    H    0.61864016    0.68114004    0.08065000    0.11490000
opls_146-11    H    0.48335992    0.77272997    0.48320882    0.11680000
opls_146-12    H    0.35567013    0.71599999    0.12617059    0.11450000
opls_146-13    H    0.35532003    0.65285019    0.99312941    0.10950000
opls_146-14    H    0.79513005    0.72946011    0.38352941    0.11710000
opls_146-15    H    0.86021999    0.79329011    0.44102059    0.10930000
opls_146-16    H    0.73768995    0.79735004    0.95952941    0.11760000
opls_146-17    H    0.48767015    0.82829017    0.25377059    0.11640000
opls_146-18    H    0.48867002    0.89275017    0.24637941    0.11490000
opls_146-19    H    0.35631017    0.76473021    0.46820882    0.11490000
opls_144-20    H    0.86121019    0.91200011    0.44292059    0.11490000
opls_144-21    H    0.37412992    0.88788011    0.91412941    0.10150000
opls_146-22    H    0.47701007    0.98106014    0.09869118    0.11360000
opls_146-23    H    0.44139005    0.06544997    0.63244118    0.11670000
opls_146-24    H    0.35351015    0.93641017    0.70462059    0.11300000
opls_146-25    H    0.53532012    0.02655011    0.75475000    0.11320000
opls_146-26    H    0.61739995    0.14953004    0.15910882    0.11490000
opls_146-27    H    0.48715987    0.10356987    0.12374118    0.11700000
opls_144-28    H    0.93878999    0.14257997    0.91107941    0.11210000
opls_144-29    H    0.60831009    0.05473004    0.68417059    0.11710000
opls_146-30    H    0.82661994    0.14911989    0.49262941    0.11710000
opls_146-31    H    0.76296989    0.02376004    0.92412059    0.11230000
opls_146-32    H    0.82547004    0.02090008    0.86452059    0.11130000
opls_146-33    H    0.70918015    0.02542004    0.71404118    0.11730000
opls_146-34    H    0.78639998    0.15625009    0.92590882    0.11490000
opls_146-35    H    0.72545015    0.16096003    0.06515882    0.11370000
opls_168-36    H    0.66632995    0.58571004    0.03162059    0.32020000
opls_168-37    H    0.77727996    0.86767993    0.91419118    0.28990000
opls_168-38    H    0.51660012    0.73633997    0.40402059    0.31170000
opls_168-39    H    0.34580022    0.85262017    0.41277941    0.29230000
opls_168-40    H    0.62315996    0.02149006    0.16637941    0.29710000
opls_168-41    H    0.89584008    0.17905989    0.36617941    0.28990000
opls_144-42    H    0.59051989    0.19384991    0.39155882    0.11150000
opls_144-43    H    0.34338998    0.98287009    0.31927941    0.18830000
opls_146-44    H    0.58609006    0.31784998    0.24392941    0.11840000
opls_146-45    H    0.46088009    0.24353991    0.65290000    0.11640000
opls_146-46    H    0.46699015    0.18213016    0.58774118    0.11050000
opls_146-47    H    0.25569996    0.04477005    0.86530000    0.11310000
opls_146-48    H    0.18679016    0.91605018    0.53459118    0.11640000
opls_146-49    H    0.25043995    0.91874018    0.35030000    0.11250000
opls_146-50    H    0.58082013    0.36590000    0.59007059    0.11360000
opls_146-51    H    0.57605013    0.42617014    0.41777059    0.11070000
opls_146-52    H    0.45320994    0.28797987    0.26300000    0.11760000
opls_146-53    H    0.19887006    0.04382012    0.71425882    0.11490000
opls_146-54    H    0.13657991    0.04172996    0.93192059    0.11050000
opls_146-55    H    0.14467008    0.91414016    0.98942941    0.11590000
opls_144-56    H    0.45921997    0.41113008    0.83125000    0.10180000
opls_144-57    H    0.02336988    0.92144002    0.95425000    0.11490000
opls_146-58    H    0.03799991    0.02468996    0.07427941    0.11420000
opls_146-59    H    0.91258002    0.98592004    0.38715882    0.11420000
opls_146-60    H    0.95204004    0.89702996    0.23784118    0.11190000
opls_146-61    H    0.05017016    0.08156005    0.39137059    0.11220000
opls_146-62    H    0.01130019    0.16690012    0.04650882    0.11140000
opls_146-63    H    0.92681990    0.03750006    0.96860882    0.11490000
opls_144-64    H    0.31751992    0.50036997    0.42392941    0.11210000
opls_144-65    H    0.10227987    0.15634000    0.19650000    0.11750000
opls_146-66    H    0.20076000    0.38920001    0.06617941    0.11320000
opls_146-67    H    0.26303005    0.32116997    0.79870000    0.11640000
opls_146-68    H    0.32320999    0.38415012    0.60185000    0.11050000
opls_146-69    H    0.22391995    0.28051989    0.25692059    0.11620000
opls_146-70    H    0.14513997    0.33045007    0.96467941    0.11640000
opls_146-71    H    0.08594011    0.26643008    0.16450000    0.11370000
opls_168-72    H    0.62305010    0.28637007    0.09842941    0.29380000
opls_168-73    H    0.43187995    0.36783989    0.29847941    0.32430000
opls_168-74    H    0.32519995    0.08011990    0.74755000    0.30300000
opls_168-75    H    0.05613013    0.90644000    0.42242941    0.36770000
opls_168-76    H    0.14487004    0.19056994    0.67579118    0.36820000
opls_168-77    H    0.23493011    0.45853008    0.94612941    0.29380000
opls_145-78    C    0.54472009    0.50589990    0.74030000    -0.07450000
opls_700-79    C    0.55744010    0.54625992    0.63339118    0.05810000
opls_145-80    C    0.52844011    0.55791008    0.54199118    -0.09930000
opls_700-81    C    0.48633014    0.52976002    0.57864118    0.07050000
opls_145-82    C    0.47361017    0.48908007    0.69387059    -0.18260000
opls_700-83    C    0.45609012    0.54381011    0.54000000    0.06680000
opls_145-84    C    0.46609993    0.58354013    0.66087941    -0.14250000
opls_700-85    C    0.43564993    0.59439000    0.68700000    0.06390000
opls_145-86    C    0.39480992    0.56566998    0.58915000    -0.09440000
opls_700-87    C    0.38465006    0.52616998    0.47364118    0.06760000
opls_145-88    C    0.41554012    0.51597998    0.43037941    -0.08710000
opls_142-89    C    0.60048000    0.57753014    0.67315000    0.10210000
opls_142-90    C    0.44619007    0.63470014    0.84347941    0.09720000
opls_145-91    C    0.64803999    0.64569012    0.95239118    0.09460000
opls_145-92    C    0.41965990    0.67744993    0.11367941    0.09410000
opls_166-93    C    0.68599996    0.64603992    0.94130000    0.21590000
opls_145-94    C    0.72246987    0.68316000    0.99672941    -0.24160000
opls_700-95    C    0.72198983    0.71923993    0.09974118    0.06020000
opls_145-96    C    0.68399012    0.71763998    0.13857941    -0.12900000
opls_145-97    C    0.64760997    0.68141994    0.05945882    -0.14160000
opls_166-98    C    0.45625022    0.71168018    0.25425882    0.21660000
opls_145-99    C    0.45564993    0.74738999    0.36137941    -0.24580000
opls_700-100    C    0.42002982    0.75039991    0.30905882    0.06300000
opls_145-101    C    0.38369008    0.71538015    0.18259118    -0.14190000
opls_145-102    C    0.38346006    0.67916012    0.09809118    -0.17360000
opls_700-103    C    0.76094995    0.75827004    0.16785882    0.06000000
opls_700-104    C    0.42158016    0.79050005    0.35280882    0.06010000
opls_145-105    C    0.79608996    0.75784019    0.30419118    -0.13240000
opls_145-106    C    0.83322990    0.79430994    0.34389118    -0.19660000
opls_145-107    C    0.83594013    0.83199013    0.26154118    0.10340000
opls_166-108    C    0.80099014    0.83325014    0.12795000    0.21330000
opls_145-109    C    0.76376987    0.79628002    0.08162941    -0.24860000
opls_145-110    C    0.45891004    0.82754007    0.30537941    -0.13240000
opls_145-111    C    0.45957996    0.86473005    0.29407059    -0.17360000
opls_145-112    C    0.42311997    0.86603995    0.30340882    0.09420000
opls_166-113    C    0.38506012    0.82905997    0.36900882    0.21190000
opls_145-114    C    0.38529003    0.79220993    0.40570000    -0.24140000
opls_142-115    C    0.88472016    0.90483019    0.35819118    0.05510000
opls_142-116    C    0.40233007    0.91246014    0.02620000    0.11730000
opls_700-117    C    0.41402004    0.95438994    0.91380882    0.05240000
opls_145-118    C    0.45413993    0.98688999    0.96695000    -0.14900000
opls_700-119    C    0.46444990    0.02712007    0.86582941    0.06600000
opls_145-120    C    0.43423988    0.03456989    0.70900000    -0.07140000
opls_700-121    C    0.39483994    0.00189001    0.63810882    0.06010000
opls_145-122    C    0.38459017    0.96181020    0.74607941    -0.09920000
opls_700-123    C    0.50640987    0.06112000    0.93642941    0.07860000
opls_145-124    C    0.53996018    0.05542009    0.87292059    -0.20480000
opls_700-125    C    0.57969001    0.08691016    0.95549118    0.05240000
opls_145-126    C    0.58641987    0.12476987    0.09945000    -0.14900000
opls_145-127    C    0.51312991    0.09908009    0.07455882    -0.10900000
opls_142-128    C    0.93397991    0.11198010    0.86644118    0.07820000
opls_142-129    C    0.61352991    0.07954994    0.88044118    0.09670000
opls_145-130    C    0.86263012    0.08393011    0.68190882    0.10140000
opls_145-131    C    0.68319003    0.09616993    0.99105882    0.09950000
opls_166-132    C    0.86299004    0.12028994    0.56882059    0.21710000
opls_145-133    C    0.82626997    0.12131008    0.58297941    -0.24040000
opls_700-134    C    0.78976007    0.08711000    0.71835000    0.06030000
opls_145-135    C    0.78976006    0.05048012    0.80615000    -0.12990000
opls_145-136    C    0.82569019    0.04880011    0.77734118    -0.17800000
opls_166-137    C    0.67918980    0.05719987    0.91412059    0.21560000
opls_145-138    C    0.71358010    0.05519007    0.79679118    -0.20600000
opls_700-139    C    0.75281995    0.09049004    0.79760000    0.06220000
opls_145-140    C    0.75672000    0.12850987    0.90507941    -0.11460000
opls_145-141    C    0.72206995    0.13125990    0.99462941    -0.18680000
opls_700-142    C    0.55307010    0.13085006    0.16027059    0.06360000
opls_142-143    C    0.55999992    0.17064997    0.30052941    0.04650000
opls_142-144    C    0.36374995    0.01025990    0.47935000    -0.03600000
opls_145-145    C    0.53029008    0.21481004    0.39870000    0.09380000
opls_916-146    C    0.28871004    0.98306008    0.48090000    0.13370000
opls_166-147    C    0.56446000    0.25364000    0.30827941    0.21590000
opls_145-148    C    0.56053990    0.28866007    0.33802059    -0.23820000
opls_700-149    C    0.52304999    0.28559011    0.45099118    0.06880000
opls_145-150    C    0.48989014    0.24697014    0.55490882    -0.12620000
opls_145-151    C    0.49345996    0.21195993    0.52357941    -0.17700000
opls_166-152    C    0.29021986    0.01909998    0.62115882    0.22290000
opls_145-153    C    0.25373999    0.01741011    0.73867941    -0.24090000
opls_700-154    C    0.21576002    0.98052005    0.71017059    0.06260000
opls_145-155    C    0.21512011    0.94500022    0.56750000    -0.12900000
opls_145-156    C    0.25133004    0.94643020    0.45550000    -0.17360000
opls_700-157    C    0.51789994    0.32205001    0.42274118    0.06870000
opls_700-158    C    0.17722011    0.97911008    0.83392059    0.06020000
opls_145-159    C    0.55169993    0.36150013    0.48347059    -0.13730000
opls_145-160    C    0.54885992    0.39598010    0.39252059    -0.18660000
opls_145-161    C    0.51196987    0.39214988    0.25725882    0.09450000
opls_166-162    C    0.47617988    0.35264988    0.24175882    0.22170000
opls_145-163    C    0.48001012    0.31801010    0.30772941    -0.24060000
opls_145-164    C    0.17426001    0.01497015    0.82600882    -0.13550000
opls_145-165    C    0.13844004    0.01384009    0.94562059    -0.17270000
opls_145-166    C    0.10450009    0.97699005    0.06662059    0.10080000
opls_166-167    C    0.10710992    0.94070997    0.08790000    0.21460000
opls_145-168    C    0.14319010    0.94209007    0.96529118    -0.24150000
opls_142-169    C    0.48908995    0.43559003    0.91704118    0.09900000
opls_700-170    C    0.50264012    0.47729997    0.77760882    0.06160000
opls_142-171    C    0.03089015    0.95053016    0.08830882    0.09990000
opls_700-172    C    0.99850985    0.96003997    0.16935882    0.05490000
opls_145-173    C    0.00745988    0.00088989    0.16050882    -0.07270000
opls_700-174    C    0.97694001    0.01086989    0.23652941    0.06770000
opls_145-175    C    0.93679995    0.97905004    0.32352941    -0.17550000
opls_700-176    C    0.92741012    0.93797010    0.31657059    0.05470000
opls_145-177    C    0.95860004    0.92862996    0.24175000    -0.07090000
opls_700-178    C    0.98671999    0.05403999    0.19460882    0.07050000
opls_145-179    C    0.02633003    0.08700993    0.27805882    -0.17990000
opls_700-180    C    0.03528996    0.12753992    0.22302059    0.04310000
opls_145-181    C    0.00458986    0.13551998    0.09205000    -0.07920000
opls_700-182    C    0.96572002    0.10316003    0.99932941    0.06990000
opls_145-183    C    0.95683992    0.06252996    0.04997941    -0.08710000
opls_142-184    C    0.34175999    0.49349011    0.48125000    0.09900000
opls_142-185    C    0.07726007    0.16152014    0.27110882    0.05610000
opls_145-186    C    0.29628994    0.42229989    0.69665882    0.10050000
opls_145-187    C    0.12027988    0.23624990    0.30594118    0.10070000
opls_166-188    C    0.26133002    0.42376990    0.82610882    0.21370000
opls_145-189    C    0.22662008    0.38732016    0.95100000    -0.26360000
opls_700-190    C    0.22636999    0.34963011    0.94880882    0.06670000
opls_145-191    C    0.26167997    0.34919995    0.81667059    -0.13540000
opls_145-192    C    0.29617004    0.38516995    0.69735000    -0.17690000
opls_166-193    C    0.15999007    0.24094014    0.34065000    0.21520000
opls_145-194    C    0.19406019    0.27790011    0.22580000    -0.24400000
opls_700-195    C    0.18986015    0.31103016    0.08715882    0.06660000
opls_145-196    C    0.15040991    0.30658995    0.07854118    -0.13170000
opls_145-197    C    0.11624997    0.26977994    0.19090882    -0.19430000
opls_750-198    N    0.60894989    0.61090992    0.85935000    -0.30490000
opls_750-199    N    0.41693991    0.64048996    0.96894118    -0.30710000
opls_750-200    N    0.87584007    0.86759002    0.27760882    -0.30650000
opls_750-201    N    0.42767005    0.90534011    0.21965000    -0.30930000
opls_750-202    N    0.89899988    0.08194002    0.75059118    -0.30960000
opls_750-203    N    0.64879989    0.10196992    0.04680000    -0.30930000
opls_750-204    N    0.52924988    0.17716002    0.31155000    -0.30560000
opls_238-205    N    0.32645005    0.98144997    0.37954118    -0.35780000
opls_750-206    N    0.51492007    0.42931000    0.11407059    -0.30610000
opls_750-207    N    0.06844010    0.97869993    0.15670000    -0.30860000
opls_750-208    N    0.33447988    0.45784989    0.60290000    -0.30690000
opls_750-209    N    0.08283015    0.19793016    0.33682059    -0.30710000
opls_167-210    O    0.68923011    0.61075996    0.89802941    -0.42690000
opls_167-211    O    0.80396996    0.87052018    0.01625882    -0.47760000
opls_167-212    O    0.49256000    0.71020001    0.29472059    -0.47560000
opls_167-213    O    0.34650003    0.82625019    0.40075882    -0.45970000
opls_167-214    O    0.64271997    0.01987994    0.97217941    -0.42190000
opls_167-215    O    0.89930020    0.15486013    0.44342941    -0.47110000
opls_167-216    O    0.60081005    0.25710010    0.15912059    -0.47800000
opls_167-217    O    0.43671994    0.34619988    0.17295000    -0.42690000
opls_167-218    O    0.32769998    0.05607996    0.64550000    -0.47770000
opls_167-219    O    0.07603016    0.90357018    0.24357941    -0.42180000
opls_167-220    O    0.16740001    0.21081015    0.49737941    -0.42690000
opls_167-221    O    0.26174003    0.46117019    0.85029118    -0.47560000
