#======================================================================
# Crystal Data Generated By AuToFF
#----------------------------------------------------------------------

data_AuToFF_phase_1

_cell_length_a                         24.6865
_cell_length_b                         24.6865
_cell_length_c                         3.5002
_cell_angle_alpha                      90.00
_cell_angle_beta                       90.00
_cell_angle_gamma                      120.00
_symmetry_space_group_name_H-M_alt     'P 1'
_symmetry_space_group_IT_number        1

loop_
_space_group_symop_operation_xyz
   'x, y, z'

loop_
   _atom_site_label
   _atom_site_type_symbol
   _atom_site_fract_x
   _atom_site_fract_y
   _atom_site_fract_z
   _atom_site_charge
opls_700-0    C    0.33368994    0.72456984    0.50000000    0.02330000
opls_145-1    C    0.44696985    0.66541966    0.50000000    -0.19520000
opls_166-2    C    0.44640983    0.61010967    0.50000000    0.15520000
opls_166-3    C    0.44396987    0.49981992    0.50000000    0.14020000
opls_700-4    C    0.27542987    0.60911992    0.50000000    0.02330000
opls_145-5    C    0.33457975    0.78154968    0.50000000    -0.19520000
opls_166-6    C    0.38988991    0.83629978    0.50000000    0.15520000
opls_166-7    C    0.50017972    0.94414976    0.50000000    0.14030000
opls_700-8    C    0.39087996    0.66630978    0.50000000    0.02330000
opls_145-9    C    0.21844993    0.55302973    0.50000000    -0.19520000
opls_166-10    C    0.16370003    0.55359009    0.50000000    0.15510000
opls_166-11    C    0.05584977    0.55602985    0.50000000    0.14020000
opls_700-12    C    0.66631006    0.27543016    0.50000000    0.02330000
opls_145-13    C    0.55302992    0.33457988    0.50000000    -0.19520000
opls_166-14    C    0.55358994    0.38988986    0.50000000    0.15510000
opls_166-15    C    0.55603013    0.50018008    0.50000000    0.14020000
opls_700-16    C    0.72457013    0.39088008    0.50000000    0.02330000
opls_145-17    C    0.66542001    0.21844985    0.50000000    -0.19520000
opls_166-18    C    0.61010986    0.16369976    0.50000000    0.15510000
opls_166-19    C    0.49982005    0.05584977    0.50000000    0.14020000
opls_700-20    C    0.60911981    0.33368976    0.50000000    0.02330000
opls_145-21    C    0.78154984    0.44696980    0.50000000    -0.19520000
opls_166-22    C    0.83629997    0.44640991    0.50000000    0.15510000
opls_166-23    C    0.94415023    0.44397015    0.50000000    0.14020000
opls_700-24    C    0.72456995    0.33368976    0.50000000    0.02330000
opls_145-25    C    0.66541997    0.44696980    0.50000000    -0.19520000
opls_166-26    C    0.61010994    0.44640991    0.50000000    0.15510000
opls_166-27    C    0.49981992    0.44397015    0.50000000    0.14020000
opls_700-28    C    0.60912010    0.27543016    0.50000000    0.02330000
opls_145-29    C    0.78154996    0.33457988    0.50000000    -0.19520000
opls_166-30    C    0.83629992    0.38988986    0.50000000    0.15510000
opls_166-31    C    0.94414995    0.50018008    0.50000000    0.14020000
opls_700-32    C    0.66630995    0.39088008    0.50000000    0.02330000
opls_145-33    C    0.55302984    0.21844985    0.50000000    -0.19520000
opls_166-34    C    0.55358990    0.16369976    0.50000000    0.15510000
opls_166-35    C    0.55602972    0.05584977    0.50000000    0.14030000
opls_700-36    C    0.27542982    0.66630978    0.50000000    0.02330000
opls_145-37    C    0.33457980    0.55302973    0.50000000    -0.19520000
opls_166-38    C    0.38989006    0.55359009    0.50000000    0.15520000
opls_166-39    C    0.50018008    0.55602985    0.50000000    0.14020000
opls_700-40    C    0.39087990    0.72456984    0.50000000    0.02340000
opls_145-41    C    0.21844981    0.66541966    0.50000000    -0.19520000
opls_166-42    C    0.16369984    0.61010967    0.50000000    0.15510000
opls_166-43    C    0.05585005    0.49981992    0.50000000    0.14020000
opls_700-44    C    0.33369005    0.60911992    0.50000000    0.02330000
opls_145-45    C    0.44696993    0.78154968    0.50000000    -0.19520000
opls_166-46    C    0.44640987    0.83629978    0.50000000    0.15510000
opls_166-47    C    0.44397005    0.94414976    0.50000000    0.14020000
opls_700-48    C    0.55702015    0.55702007    0.50000000    -0.09380000
opls_261-49    C    0.61474973    0.61474970    0.50000000    0.19230000
opls_700-50    C    0.44298017    0.00000000    0.50000000    -0.09380000
opls_261-51    C    0.38524983    0.00000000    0.50000000    0.19230000
opls_700-52    C    0.00000008    0.44297993    0.50000000    -0.09390000
opls_261-53    C    0.99999979    0.38524983    0.50000000    0.19220000
opls_700-54    C    0.44297985    0.44297993    0.50000000    -0.09380000
opls_261-55    C    0.38525003    0.38524983    0.50000000    0.19220000
opls_700-56    C    0.55701983    0.00000000    0.50000000    -0.09390000
opls_261-57    C    0.61475017    0.00000000    0.50000000    0.19220000
opls_700-58    C    0.99999992    0.55702007    0.50000000    -0.09380000
opls_261-59    C    0.99999997    0.61474970    0.50000000    0.19220000
opls_180-60    O    0.38735971    0.49671970    0.50000000    -0.10260000
opls_180-61    O    0.50327985    0.89063966    0.50000000    -0.10260000
opls_180-62    O    0.10935998    0.61263970    0.50000000    -0.10260000
opls_180-63    O    0.61264006    0.50327983    0.50000000    -0.10260000
opls_180-64    O    0.49671992    0.10935987    0.50000000    -0.10260000
opls_180-65    O    0.89063979    0.38735983    0.50000000    -0.10250000
opls_180-66    O    0.49672004    0.38735983    0.50000000    -0.10260000
opls_180-67    O    0.89063977    0.50327983    0.50000000    -0.10260000
opls_180-68    O    0.61263995    0.10935987    0.50000000    -0.10260000
opls_180-69    O    0.50327973    0.61263970    0.50000000    -0.10260000
opls_180-70    O    0.10935999    0.49671970    0.50000000    -0.10260000
opls_180-71    O    0.38735981    0.89063966    0.50000000    -0.10260000
opls_146-72    H    0.49319009    0.70784980    0.50000000    0.07650000
opls_146-73    H    0.29214979    0.78533982    0.50000000    0.07650000
opls_146-74    H    0.21465989    0.50680991    0.50000000    0.07660000
opls_146-75    H    0.50680968    0.29214973    0.50000000    0.07650000
opls_146-76    H    0.70785021    0.21466018    0.50000000    0.07650000
opls_146-77    H    0.78534011    0.49319009    0.50000000    0.07650000
opls_146-78    H    0.70784998    0.49319009    0.50000000    0.07650000
opls_146-79    H    0.78534005    0.29214973    0.50000000    0.07650000
opls_146-80    H    0.50680997    0.21466018    0.50000000    0.07650000
opls_146-81    H    0.29215002    0.50680991    0.50000000    0.07660000
opls_146-82    H    0.21465972    0.70784980    0.50000000    0.07650000
opls_146-83    H    0.49319003    0.78533982    0.50000000    0.07650000
opls_262-84    N    0.33814986    0.33814971    0.50000000    -0.29320000
opls_262-85    N    0.66185000    0.00000000    0.50000000    -0.29310000
opls_262-86    N    0.99999991    0.66184982    0.50000000    -0.29320000
opls_262-87    N    0.66184991    0.66184982    0.50000000    -0.29310000
opls_262-88    N    0.33815000    0.00000000    0.50000000    -0.29310000
opls_262-89    N    0.99999985    0.33814971    0.50000000    -0.29320000
