#======================================================================
# Crystal Data Generated By AuToFF
#----------------------------------------------------------------------

data_AuToFF_phase_1

_cell_length_a                         34.2613
_cell_length_b                         36.6059
_cell_length_c                         3.7519
_cell_angle_alpha                      90.00
_cell_angle_beta                       87.54
_cell_angle_gamma                      90.00
_symmetry_space_group_name_H-M_alt     'P 1'
_symmetry_space_group_IT_number        1

loop_
_space_group_symop_operation_xyz
   'x, y, z'

loop_
   _atom_site_label
   _atom_site_type_symbol
   _atom_site_fract_x
   _atom_site_fract_y
   _atom_site_fract_z
   _atom_site_charge
opls_700-0    C    0.03619995    0.92160007    0.47599929    0.03150000
opls_700-1    C    0.03610005    0.96070005    0.45730079    0.03150000
opls_145-2    C    0.07089989    0.98130001    0.37600009    -0.12280000
opls_700-3    C    0.92790009    0.89889990    0.52480105    0.06700000
opls_145-4    C    0.92750007    0.86370011    0.67990065    -0.12730000
opls_145-5    C    0.89530018    0.84050003    0.66539858    -0.12710000
opls_700-6    C    0.86110007    0.85149989    0.49669862    0.13290000
opls_145-7    C    0.86120001    0.88689993    0.34699861    -0.12730000
opls_145-8    C    0.89380009    0.90970008    0.35479921    -0.12690000
opls_142-9    C    0.17420002    0.82909995    0.52079937    -0.09650000
opls_700-10    C    0.78520000    0.77120000    0.50329871    0.07170000
opls_145-11    C    0.74889989    0.78750010    0.43710033    -0.12500000
opls_145-12    C    0.71480013    0.76689987    0.43420045    -0.12710000
opls_700-13    C    0.67780013    0.70810006    0.48779889    -0.00480000
opls_423-14    C    0.64340010    0.26950000    0.45340049    0.25350000
opls_700-15    C    0.53619995    0.42160007    0.47599929    0.03150000
opls_700-16    C    0.53610005    0.46070005    0.45730079    0.03150000
opls_145-17    C    0.57089989    0.48130001    0.37600009    -0.12280000
opls_700-18    C    0.42790009    0.39889990    0.52480105    0.06700000
opls_145-19    C    0.42750007    0.36370011    0.67990065    -0.12730000
opls_145-20    C    0.39530018    0.34050003    0.66539858    -0.12710000
opls_700-21    C    0.36110007    0.35149989    0.49669862    0.13290000
opls_145-22    C    0.36120001    0.38689993    0.34699861    -0.12730000
opls_145-23    C    0.39380009    0.40970008    0.35479921    -0.12690000
opls_142-24    C    0.67420002    0.32909995    0.52079937    -0.09650000
opls_700-25    C    0.28520000    0.27120000    0.50329871    0.07170000
opls_145-26    C    0.24889989    0.28750010    0.43710033    -0.12500000
opls_145-27    C    0.21480013    0.26689987    0.43420045    -0.12710000
opls_700-28    C    0.17780013    0.20810006    0.48779889    -0.00480000
opls_423-29    C    0.14340010    0.76950000    0.45340049    0.25350000
opls_700-30    C    0.96380005    0.92160007    0.52400071    0.03150000
opls_700-31    C    0.96389995    0.96070005    0.54269921    0.03150000
opls_145-32    C    0.92910011    0.98130001    0.62399991    -0.12280000
opls_700-33    C    0.07209991    0.89889990    0.47519895    0.06700000
opls_145-34    C    0.07249993    0.86370011    0.32009935    -0.12730000
opls_145-35    C    0.10470013    0.84050003    0.33459875    -0.12710000
opls_700-36    C    0.13889995    0.85149989    0.50329871    0.13290000
opls_145-37    C    0.13880001    0.88689993    0.65299872    -0.12730000
opls_145-38    C    0.10619991    0.90970008    0.64520079    -0.12690000
opls_142-39    C    0.82579998    0.82909995    0.47920063    -0.09650000
opls_700-40    C    0.21480012    0.77120000    0.49679999    0.07170000
opls_145-41    C    0.25110011    0.78750010    0.56289967    -0.12500000
opls_145-42    C    0.28520016    0.76689987    0.56579955    -0.12710000
opls_700-43    C    0.32220016    0.70810006    0.51220111    -0.00480000
opls_423-44    C    0.35659990    0.26950000    0.54659951    0.25350000
opls_700-45    C    0.46380005    0.42160007    0.52400071    0.03150000
opls_700-46    C    0.46389995    0.46070005    0.54269921    0.03150000
opls_145-47    C    0.42910011    0.48130001    0.62399991    -0.12280000
opls_700-48    C    0.57209991    0.39889990    0.47519895    0.06700000
opls_145-49    C    0.57249993    0.36370011    0.32009935    -0.12730000
opls_145-50    C    0.60470013    0.34050003    0.33459875    -0.12710000
opls_700-51    C    0.63889995    0.35149989    0.50329871    0.13290000
opls_145-52    C    0.63880001    0.38689993    0.65299872    -0.12730000
opls_145-53    C    0.60619991    0.40970008    0.64520079    -0.12690000
opls_142-54    C    0.32579998    0.32909995    0.47920063    -0.09650000
opls_700-55    C    0.71480012    0.27120000    0.49679999    0.07170000
opls_145-56    C    0.75110011    0.28750010    0.56289967    -0.12500000
opls_145-57    C    0.78520016    0.26689987    0.56579955    -0.12710000
opls_700-58    C    0.82220016    0.20810006    0.51220111    -0.00480000
opls_423-59    C    0.85659990    0.76950000    0.54659951    0.25350000
opls_700-60    C    0.96380005    0.07839993    0.52400071    0.03150000
opls_700-61    C    0.96389995    0.03939993    0.54269921    0.03150000
opls_145-62    C    0.92910011    0.01869999    0.62399991    -0.12520000
opls_700-63    C    0.07209991    0.10120008    0.47519895    0.06700000
opls_145-64    C    0.07249993    0.13629989    0.32009935    -0.12710000
opls_145-65    C    0.10470013    0.15949997    0.33459875    -0.12710000
opls_700-66    C    0.13889995    0.14850011    0.50329871    0.13290000
opls_145-67    C    0.13880001    0.11310007    0.65299872    -0.12730000
opls_145-68    C    0.10619991    0.09029992    0.64520079    -0.12720000
opls_142-69    C    0.82579998    0.17090005    0.47920063    -0.09650000
opls_700-70    C    0.21480012    0.22880000    0.49679999    0.07170000
opls_145-71    C    0.25110011    0.21249990    0.56289967    -0.12500000
opls_145-72    C    0.28520016    0.23310013    0.56579955    -0.12290000
opls_700-73    C    0.32220016    0.29189994    0.51220111    -0.00480000
opls_423-74    C    0.35659990    0.73050000    0.54659951    0.25350000
opls_700-75    C    0.46380005    0.57839993    0.52400071    0.03150000
opls_700-76    C    0.46389995    0.53939993    0.54269921    0.03150000
opls_145-77    C    0.42910011    0.51869999    0.62399991    -0.12520000
opls_700-78    C    0.57209991    0.60120008    0.47519895    0.06700000
opls_145-79    C    0.57249993    0.63629989    0.32009935    -0.12710000
opls_145-80    C    0.60470013    0.65949997    0.33459875    -0.12710000
opls_700-81    C    0.63889995    0.64850011    0.50329871    0.13290000
opls_145-82    C    0.63880001    0.61310007    0.65299872    -0.12720000
opls_145-83    C    0.60619991    0.59029992    0.64520079    -0.12720000
opls_142-84    C    0.32579998    0.67090005    0.47920063    -0.09650000
opls_700-85    C    0.71480012    0.72880000    0.49679999    0.07170000
opls_145-86    C    0.75110011    0.71249990    0.56289967    -0.12500000
opls_145-87    C    0.78520016    0.73310013    0.56579955    -0.12290000
opls_700-88    C    0.82220016    0.79189994    0.51220111    -0.00480000
opls_423-89    C    0.85659990    0.23050000    0.54659951    0.25360000
opls_700-90    C    0.03619995    0.07839993    0.47599929    0.03150000
opls_700-91    C    0.03610005    0.03939993    0.45730079    0.03150000
opls_145-92    C    0.07089989    0.01869999    0.37600009    -0.12520000
opls_700-93    C    0.92790009    0.10120008    0.52480105    0.06700000
opls_145-94    C    0.92750007    0.13629989    0.67990065    -0.12700000
opls_145-95    C    0.89530018    0.15949997    0.66539858    -0.12710000
opls_700-96    C    0.86110007    0.14850011    0.49669862    0.13290000
opls_145-97    C    0.86120001    0.11310007    0.34699861    -0.12730000
opls_145-98    C    0.89380009    0.09029992    0.35479921    -0.12740000
opls_142-99    C    0.17420002    0.17090005    0.52079937    -0.09650000
opls_700-100    C    0.78520000    0.22880000    0.50329871    0.07170000
opls_145-101    C    0.74889989    0.21249990    0.43710033    -0.12500000
opls_145-102    C    0.71480013    0.23310013    0.43420045    -0.12290000
opls_700-103    C    0.67780013    0.29189994    0.48779889    -0.00480000
opls_423-104    C    0.64340010    0.73050000    0.45340049    0.25350000
opls_700-105    C    0.53619995    0.57839993    0.47599929    0.03150000
opls_700-106    C    0.53610005    0.53939993    0.45730079    0.03150000
opls_145-107    C    0.57089989    0.51869999    0.37600009    -0.12520000
opls_700-108    C    0.42790009    0.60120008    0.52480105    0.06700000
opls_145-109    C    0.42750007    0.63629989    0.67990065    -0.12710000
opls_145-110    C    0.39530018    0.65949997    0.66539858    -0.12710000
opls_700-111    C    0.36110007    0.64850011    0.49669862    0.13290000
opls_145-112    C    0.36120001    0.61310007    0.34699861    -0.12720000
opls_145-113    C    0.39380009    0.59029992    0.35479921    -0.12740000
opls_142-114    C    0.67420002    0.67090005    0.52079937    -0.09650000
opls_700-115    C    0.28520000    0.72880000    0.50329871    0.07170000
opls_145-116    C    0.24889989    0.71249990    0.43710033    -0.12490000
opls_145-117    C    0.21480013    0.73310013    0.43420045    -0.12280000
opls_700-118    C    0.17780013    0.79189994    0.48779889    -0.00480000
opls_423-119    C    0.14340010    0.23050000    0.45340049    0.25350000
opls_700-120    C    0.50000015    0.48029990    0.49999867    -0.01950000
opls_145-121    C    0.50000015    0.40349998    0.49999867    -0.14350000
opls_700-122    C    0.00000015    0.98029990    0.49999867    -0.01950000
opls_145-123    C    0.00000015    0.90349998    0.49999867    -0.14360000
opls_700-124    C    0.50000015    0.51970010    0.49999867    -0.03040000
opls_145-125    C    0.50000015    0.59650002    0.49999867    -0.14360000
opls_700-126    C    0.00000015    0.01970010    0.49999867    -0.03040000
opls_145-127    C    0.00000015    0.09650002    0.49999867    -0.14360000
opls_144-128    H    0.70100013    0.34459991    0.57219956    0.10770000
opls_146-129    H    0.40200006    0.53330010    0.69870052    0.08210000
opls_146-130    H    0.54699995    0.64589998    0.17849873    0.10880000
opls_146-131    H    0.60349999    0.68630002    0.20580083    0.11920000
opls_146-132    H    0.66470007    0.60359997    0.78910104    0.11150000
opls_146-133    H    0.60709996    0.56390008    0.78380015    0.06350000
opls_146-134    H    0.74719993    0.81699999    0.38449964    0.10570000
opls_146-135    H    0.68710010    0.78060012    0.38039926    0.10570000
opls_144-136    H    0.20100013    0.84459991    0.57219956    0.10770000
opls_146-137    H    0.90200006    0.03330010    0.69870052    0.08200000
opls_146-138    H    0.04699995    0.14589998    0.17849873    0.10880000
opls_146-139    H    0.10349999    0.18630002    0.20580083    0.11930000
opls_146-140    H    0.16470007    0.10359997    0.78910104    0.11150000
opls_146-141    H    0.10709996    0.06390008    0.78380015    0.06350000
opls_146-142    H    0.24719993    0.31699999    0.38449964    0.10570000
opls_146-143    H    0.18710010    0.28060012    0.38039926    0.10570000
opls_144-144    H    0.29900017    0.34459991    0.42780044    0.10770000
opls_146-145    H    0.59799994    0.53330010    0.30129948    0.08200000
opls_146-146    H    0.45300007    0.64589998    0.82149860    0.10880000
opls_146-147    H    0.39650001    0.68630002    0.79419917    0.11920000
opls_146-148    H    0.33530004    0.60359997    0.21100034    0.06790000
opls_146-149    H    0.39300015    0.56390008    0.21619985    0.06770000
opls_146-150    H    0.25280007    0.81699999    0.61550036    0.10570000
opls_146-151    H    0.31289990    0.78060012    0.61960074    0.10570000
opls_144-152    H    0.79900017    0.84459991    0.42780044    0.10770000
opls_146-153    H    0.09799994    0.03330010    0.30129948    0.08200000
opls_146-154    H    0.95300007    0.14589998    0.82149860    0.10890000
opls_146-155    H    0.89650001    0.18630002    0.79419917    0.11920000
opls_146-156    H    0.83530004    0.10359997    0.21100034    0.06790000
opls_146-157    H    0.89300015    0.06390008    0.21619985    0.06770000
opls_146-158    H    0.75280007    0.31699999    0.61550036    0.10570000
opls_146-159    H    0.81289990    0.28060012    0.61960074    0.10570000
opls_144-160    H    0.29900017    0.65540009    0.42780044    0.10770000
opls_146-161    H    0.59799994    0.46669990    0.30129948    0.08200000
opls_146-162    H    0.45300007    0.35420001    0.82149860    0.06770000
opls_146-163    H    0.39650001    0.31369998    0.79419917    0.11920000
opls_146-164    H    0.33530004    0.39640003    0.21100034    0.06790000
opls_146-165    H    0.39300015    0.43609992    0.21619985    0.06770000
opls_146-166    H    0.25280007    0.18300001    0.61550036    0.10570000
opls_146-167    H    0.31289990    0.21950014    0.61960074    0.07080000
opls_144-168    H    0.79900017    0.15540009    0.42780044    0.10770000
opls_146-169    H    0.09799994    0.96669990    0.30129948    0.08200000
opls_146-170    H    0.95300007    0.85420001    0.82149860    0.06770000
opls_146-171    H    0.89650001    0.81369998    0.79419917    0.11920000
opls_146-172    H    0.83530004    0.89640003    0.21100034    0.06790000
opls_146-173    H    0.89300015    0.93609992    0.21619985    0.06770000
opls_146-174    H    0.75280007    0.68300001    0.61550036    0.10580000
opls_146-175    H    0.81289990    0.71950014    0.61960074    0.07080000
opls_144-176    H    0.70100013    0.65540009    0.57219956    0.10770000
opls_146-177    H    0.40200006    0.46669990    0.69870052    0.08200000
opls_146-178    H    0.54699995    0.35420001    0.17849873    0.06770000
opls_146-179    H    0.60349999    0.31369998    0.20580083    0.11920000
opls_146-180    H    0.66470007    0.39640003    0.78910104    0.11150000
opls_146-181    H    0.60709996    0.43609992    0.78380015    0.06350000
opls_146-182    H    0.74719993    0.18300001    0.38449964    0.10570000
opls_146-183    H    0.68710010    0.21950014    0.38039926    0.07080000
opls_144-184    H    0.20100013    0.15540009    0.57219956    0.10770000
opls_146-185    H    0.90200006    0.96669990    0.69870052    0.08200000
opls_146-186    H    0.04699995    0.85420001    0.17849873    0.06770000
opls_146-187    H    0.10349999    0.81369998    0.20580083    0.11920000
opls_146-188    H    0.16470007    0.89640003    0.78910104    0.11150000
opls_146-189    H    0.10709996    0.93609992    0.78380015    0.06350000
opls_146-190    H    0.24719993    0.68300001    0.38449964    0.10570000
opls_146-191    H    0.18710010    0.71950014    0.38039926    0.07080000
opls_146-192    H    0.50000015    0.62650010    0.49999867    0.11160000
opls_146-193    H    0.00000015    0.12650010    0.49999867    0.11160000
opls_146-194    H    0.50000015    0.37349990    0.49999867    0.11160000
opls_146-195    H    0.00000015    0.87349990    0.49999867    0.11160000
opls_753-196    N    0.61670007    0.25050006    0.44000021    -0.32210000
opls_753-197    N    0.11670007    0.75050006    0.44000021    -0.32220000
opls_753-198    N    0.38329993    0.25050006    0.55999979    -0.32210000
opls_753-199    N    0.88329993    0.75050006    0.55999979    -0.32220000
opls_753-200    N    0.38329993    0.74949994    0.55999979    -0.32220000
opls_753-201    N    0.88329993    0.24949994    0.55999979    -0.32210000
opls_753-202    N    0.61670007    0.74949994    0.44000021    -0.32220000
opls_753-203    N    0.11670007    0.24949994    0.44000021    -0.32220000
