#======================================================================
# Crystal Data Generated By AuToFF
#----------------------------------------------------------------------

data_AuToFF_phase_1

_cell_length_a                         21.7621
_cell_length_b                         21.7621
_cell_length_c                         3.4854
_cell_angle_alpha                      90.00
_cell_angle_beta                       90.00
_cell_angle_gamma                      120.00
_symmetry_space_group_name_H-M_alt     'P 1'
_symmetry_space_group_IT_number        1

loop_
_space_group_symop_operation_xyz
   'x, y, z'

loop_
   _atom_site_label
   _atom_site_type_symbol
   _atom_site_fract_x
   _atom_site_fract_y
   _atom_site_fract_z
   _atom_site_charge
opls_280-0    C    0.74257005    0.36081019    0.50000000    0.34950000
opls_145-1    C    0.71546007    0.41091013    0.50000000    -0.16450000
opls_142-2    C    0.75691989    0.48189985    0.50000000    0.09960000
opls_141-3    C    0.88516970    0.58718979    0.50000000    0.35320000
opls_916-4    C    0.98005002    0.55260995    0.50000000    0.25040000
opls_145-5    C    0.93142978    0.48019980    0.50000000    -0.11100000
opls_145-6    C    0.95032012    0.42766016    0.50000000    -0.14060000
opls_280-7    C    0.63919010    0.38175993    0.50000000    0.34950000
opls_145-8    C    0.58908990    0.30454996    0.50000000    -0.16450000
opls_142-9    C    0.51810004    0.27501986    0.50000000    0.09960000
opls_141-10    C    0.41281015    0.29798005    0.50000000    0.35320000
opls_916-11    C    0.44738998    0.42743996    0.50000000    0.25040000
opls_145-12    C    0.51979985    0.45123001    0.50000000    -0.11100000
opls_145-13    C    0.57234004    0.52266014    0.50000000    -0.14060000
opls_280-14    C    0.61823985    0.25742988    0.50000000    0.34950000
opls_145-15    C    0.69545003    0.28453991    0.50000000    -0.16450000
opls_142-16    C    0.72497981    0.24307976    0.50000000    0.09960000
opls_141-17    C    0.70202015    0.11483016    0.50000000    0.35320000
opls_916-18    C    0.57256000    0.01995009    0.50000000    0.25040000
opls_145-19    C    0.54876991    0.06857018    0.50000000    -0.11100000
opls_145-20    C    0.47734010    0.04968023    0.50000000    -0.14060000
opls_280-21    C    0.25742995    0.63918981    0.50000000    0.34950000
opls_145-22    C    0.28453993    0.58908987    0.50000000    -0.16450000
opls_142-23    C    0.24308011    0.51810015    0.50000000    0.09960000
opls_141-24    C    0.11483030    0.41281021    0.50000000    0.35320000
opls_916-25    C    0.01994998    0.44739005    0.50000000    0.25040000
opls_145-26    C    0.06857022    0.51980020    0.50000000    -0.11100000
opls_145-27    C    0.04967988    0.57233984    0.50000000    -0.14060000
opls_280-28    C    0.36080990    0.61824007    0.50000000    0.34950000
opls_145-29    C    0.41091010    0.69545004    0.50000000    -0.16450000
opls_142-30    C    0.48189996    0.72498014    0.50000000    0.09960000
opls_141-31    C    0.58718985    0.70201995    0.50000000    0.35320000
opls_916-32    C    0.55261002    0.57256004    0.50000000    0.25040000
opls_145-33    C    0.48020015    0.54876999    0.50000000    -0.11100000
opls_145-34    C    0.42765996    0.47733986    0.50000000    -0.14060000
opls_280-35    C    0.38176015    0.74257012    0.50000000    0.34950000
opls_145-36    C    0.30454997    0.71546009    0.50000000    -0.16450000
opls_142-37    C    0.27502019    0.75692024    0.50000000    0.09960000
opls_141-38    C    0.29797985    0.88516984    0.50000000    0.35320000
opls_916-39    C    0.42744000    0.98004991    0.50000000    0.25040000
opls_145-40    C    0.45123009    0.93142982    0.50000000    -0.11100000
opls_145-41    C    0.52266016    0.95032030    0.50000000    -0.14060000
opls_750-42    N    0.83165996    0.51409994    0.50000000    -0.26100000
opls_238-43    N    0.95807999    0.60494001    0.50000000    -0.32620000
opls_750-44    N    0.48589998    0.31755978    0.50000000    -0.26100000
opls_238-45    N    0.39505985    0.35313981    0.50000000    -0.32620000
opls_750-46    N    0.68244006    0.16834027    0.50000000    -0.26100000
opls_238-47    N    0.64686017    0.04192018    0.50000000    -0.32620000
opls_750-48    N    0.16834004    0.48590006    0.50000000    -0.26100000
opls_238-49    N    0.04192001    0.39505999    0.50000000    -0.32620000
opls_750-50    N    0.51410002    0.68244022    0.50000000    -0.26100000
opls_238-51    N    0.60494015    0.64686019    0.50000000    -0.32620000
opls_750-52    N    0.31756020    0.83166026    0.50000000    -0.26100000
opls_238-53    N    0.35313983    0.95807982    0.50000000    -0.32620000
opls_474-54    S    0.86742989    0.64239995    0.50000000    -0.18100000
opls_474-55    S    0.35759968    0.22502975    0.50000000    -0.18100000
opls_474-56    S    0.77496970    0.13256976    0.50000000    -0.18100000
opls_474-57    S    0.13257011    0.35760005    0.50000000    -0.18100000
opls_474-58    S    0.64240032    0.77497025    0.50000000    -0.18100000
opls_474-59    S    0.22503030    0.86743024    0.50000000    -0.18100000
opls_281-60    O    0.80515014    0.38201993    0.50000000    -0.28540000
opls_281-61    O    0.61797976    0.42312988    0.50000000    -0.28540000
opls_281-62    O    0.57687009    0.19485019    0.50000000    -0.28540000
opls_281-63    O    0.19484986    0.61798007    0.50000000    -0.28540000
opls_281-64    O    0.38202024    0.57687012    0.50000000    -0.28540000
opls_281-65    O    0.42312991    0.80514981    0.50000000    -0.28540000
opls_144-66    H    0.73188008    0.51706017    0.50000000    0.02930000
opls_910-67    H    0.00080982    0.66140982    0.50000000    0.28830000
opls_146-68    H    0.87209009    0.46070019    0.50000000    0.04970000
opls_146-69    H    0.90738007    0.36929026    0.50000000    0.04970000
opls_144-70    H    0.48293989    0.21481992    0.50000000    0.02930000
opls_910-71    H    0.33858989    0.33939988    0.50000000    0.28830000
opls_146-72    H    0.53930011    0.41138979    0.50000000    0.04970000
opls_146-73    H    0.63071002    0.53809004    0.50000000    0.04970000
opls_144-74    H    0.78518002    0.26811991    0.50000000    0.02930000
opls_910-75    H    0.66060003    0.99918977    0.50000000    0.28830000
opls_146-76    H    0.58860980    0.12791002    0.50000000    0.04970000
opls_146-77    H    0.46191017    0.09262023    0.50000000    0.04970000
opls_144-78    H    0.26811992    0.48293983    0.50000000    0.02930000
opls_910-79    H    0.99919018    0.33859018    0.50000000    0.28830000
opls_146-80    H    0.12790991    0.53929981    0.50000000    0.04970000
opls_146-81    H    0.09262020    0.63071027    0.50000000    0.04970000
opls_144-82    H    0.51706011    0.78518008    0.50000000    0.02930000
opls_910-83    H    0.66141011    0.66060012    0.50000000    0.28830000
opls_146-84    H    0.46069989    0.58861021    0.50000000    0.04970000
opls_146-85    H    0.36928998    0.46190996    0.50000000    0.04970000
opls_144-86    H    0.21481998    0.73188009    0.50000000    0.02930000
opls_910-87    H    0.33939997    0.00081023    0.50000000    0.28830000
opls_146-88    H    0.41139020    0.87208998    0.50000000    0.04970000
opls_146-89    H    0.53809009    0.90738030    0.50000000    0.04970000
