#======================================================================
# Crystal Data Generated By AuToFF
#----------------------------------------------------------------------

data_AuToFF_phase_1

_cell_length_a                         13.7241
_cell_length_b                         13.7241
_cell_length_c                         25.0000
_cell_angle_alpha                      90.00
_cell_angle_beta                       90.00
_cell_angle_gamma                      90.00
_symmetry_space_group_name_H-M_alt     'P 1'
_symmetry_space_group_IT_number        1

loop_
_space_group_symop_operation_xyz
   'x, y, z'

loop_
   _atom_site_label
   _atom_site_type_symbol
   _atom_site_fract_x
   _atom_site_fract_y
   _atom_site_fract_z
   _atom_site_charge
opls_146-0    H    0.12842008    0.62842008    0.50000000    0.11500000
opls_146-1    H    0.87157992    0.37157992    0.50000000    0.11500000
opls_146-2    H    0.37157992    0.12842008    0.50000000    0.11500000
opls_146-3    H    0.62842008    0.87157992    0.50000000    0.11500000
opls_145-4    C    0.07226995    0.57226995    0.50000000    -0.17790000
opls_145-5    C    0.92773005    0.42773005    0.50000000    -0.17790000
opls_145-6    C    0.42773005    0.07226995    0.50000000    -0.17790000
opls_145-7    C    0.57226995    0.92773005    0.50000000    -0.17790000
opls_700-8    C    0.09893982    0.47465990    0.50000000    0.03600000
opls_543-9    C    0.50642009    0.71716980    0.50000000    0.35000000
opls_700-10    C    0.77210017    0.65366035    0.50000000    -0.07910000
opls_543-11    C    0.35224022    0.66475033    0.50000000    0.35830000
opls_700-12    C    0.19743007    0.44416975    0.50000000    -0.06060000
opls_700-13    C    0.90106018    0.52534010    0.50000000    0.03600000
opls_543-14    C    0.49357991    0.28283020    0.50000000    0.35000000
opls_700-15    C    0.22789983    0.34633965    0.50000000    -0.07910000
opls_543-16    C    0.64775978    0.33524967    0.50000000    0.35830000
opls_700-17    C    0.80256993    0.55583025    0.50000000    -0.06060000
opls_700-18    C    0.52534010    0.09893982    0.50000000    0.03600000
opls_543-19    C    0.28283020    0.50642009    0.50000000    0.35000000
opls_700-20    C    0.34633965    0.77210017    0.50000000    -0.07910000
opls_543-21    C    0.33524967    0.35224022    0.50000000    0.35830000
opls_700-22    C    0.55583025    0.19743007    0.50000000    -0.06060000
opls_700-23    C    0.47465990    0.90106018    0.50000000    0.03600000
opls_543-24    C    0.71716980    0.49357991    0.50000000    0.35000000
opls_700-25    C    0.65366035    0.22789983    0.50000000    -0.07910000
opls_543-26    C    0.66475033    0.64775978    0.50000000    0.35830000
opls_700-27    C    0.44416975    0.80256993    0.50000000    -0.06060000
opls_700-28    C    0.40106018    0.97465990    0.50000000    0.03600000
opls_543-29    C    0.99357991    0.21716980    0.50000000    0.35030000
opls_700-30    C    0.72789983    0.15366035    0.50000000    -0.07910000
opls_543-31    C    0.14775978    0.16475033    0.50000000    0.35830000
opls_700-32    C    0.30256993    0.94416975    0.50000000    -0.06060000
opls_700-33    C    0.59893982    0.02534010    0.50000000    0.03600000
opls_543-34    C    0.00642009    0.78283020    0.50000000    0.35000000
opls_700-35    C    0.27210017    0.84633965    0.50000000    -0.07910000
opls_543-36    C    0.85224022    0.83524967    0.50000000    0.35830000
opls_700-37    C    0.69743007    0.05583025    0.50000000    -0.06060000
opls_700-38    C    0.97465990    0.59893982    0.50000000    0.03600000
opls_543-39    C    0.21716980    0.00642009    0.50000000    0.35000000
opls_700-40    C    0.15366035    0.27210017    0.50000000    -0.07910000
opls_543-41    C    0.16475033    0.85224022    0.50000000    0.35830000
opls_700-42    C    0.94416975    0.69743007    0.50000000    -0.06060000
opls_700-43    C    0.02534010    0.40106018    0.50000000    0.03600000
opls_543-44    C    0.78283020    0.99357991    0.50000000    0.35030000
opls_700-45    C    0.84633965    0.72789983    0.50000000    -0.07910000
opls_543-46    C    0.83524967    0.14775978    0.50000000    0.35830000
opls_700-47    C    0.05583025    0.30256993    0.50000000    -0.06060000
opls_750-48    N    0.60364031    0.72255011    0.50000000    -0.36410000
opls_542-49    N    0.44865966    0.63586027    0.50000000    -0.40370000
opls_750-50    N    0.39635969    0.27744989    0.50000000    -0.36410000
opls_542-51    N    0.55134034    0.36413973    0.50000000    -0.40370000
opls_750-52    N    0.27744989    0.60364031    0.50000000    -0.36410000
opls_542-53    N    0.36413973    0.44865966    0.50000000    -0.40370000
opls_750-54    N    0.72255011    0.39635969    0.50000000    -0.36410000
opls_542-55    N    0.63586027    0.55134034    0.50000000    -0.40370000
opls_750-56    N    0.89635969    0.22255011    0.50000000    -0.36410000
opls_542-57    N    0.05133014    0.13586027    0.50000000    -0.40370000
opls_750-58    N    0.10364031    0.77744989    0.50000000    -0.36410000
opls_542-59    N    0.94865966    0.86413973    0.50000000    -0.40370000
opls_750-60    N    0.22255011    0.10364031    0.50000000    -0.36410000
opls_542-61    N    0.13586027    0.94865966    0.50000000    -0.40370000
opls_750-62    N    0.77744989    0.89635969    0.50000000    -0.36410000
opls_542-63    N    0.86413973    0.05133014    0.50000000    -0.40370000
Zn2+-64    Zn    0.00000000    0.00000000    0.50000000    0.77830000
Zn2+-65    Zn    0.50000000    0.50000000    0.50000000    0.77830000
