#======================================================================
# Crystal Data Generated By AuToFF
#----------------------------------------------------------------------

data_AuToFF_phase_1

_cell_length_a                         45.0943
_cell_length_b                         45.0943
_cell_length_c                         4.3515
_cell_angle_alpha                      90.00
_cell_angle_beta                       90.00
_cell_angle_gamma                      120.00
_symmetry_space_group_name_H-M_alt     'P 1'
_symmetry_space_group_IT_number        1

loop_
_space_group_symop_operation_xyz
   'x, y, z'

loop_
   _atom_site_label
   _atom_site_type_symbol
   _atom_site_fract_x
   _atom_site_fract_y
   _atom_site_fract_z
   _atom_site_charge
opls_642-0    C    0.66392000    0.30333003    0.49951051    0.44660000
opls_166-1    C    0.60324997    0.35985989    0.46005975    0.24870000
opls_145-2    C    0.57305995    0.35417989    0.57798001    -0.24660000
opls_145-3    C    0.56384000    0.37792005    0.54680915    -0.22160000
opls_145-4    C    0.58460005    0.40806001    0.39411927    0.00800000
opls_145-5    C    0.61465009    0.41337000    0.27046995    -0.22190000
opls_145-6    C    0.62382999    0.38959988    0.30184994    -0.24480000
opls_142-7    C    0.57625991    0.43250998    0.36361944    0.08940000
opls_145-8    C    0.53589006    0.44912005    0.48935999    0.18600000
opls_145-9    C    0.50494004    0.43711989    0.62799954    -0.24890000
opls_145-10    C    0.48953993    0.45605988    0.64731932    0.09410000
opls_145-11    C    0.50602008    0.48884011    0.52822935    0.00140000
opls_145-12    C    0.53700999    0.50009999    0.38608066    -0.22430000
opls_145-13    C    0.55179009    0.48097999    0.36628059    -0.22670000
opls_135-14    C    0.45638010    0.43871004    0.79172010    -0.43430000
opls_642-15    C    0.69666998    0.36058993    0.49951051    0.44670000
opls_166-16    C    0.64013986    0.24338991    0.46005975    0.24860000
opls_145-17    C    0.64582000    0.21888002    0.57798001    -0.24670000
opls_145-18    C    0.62208011    0.18592004    0.54680915    -0.22160000
opls_145-19    C    0.59194005    0.17653992    0.39411927    0.00800000
opls_145-20    C    0.58663003    0.20128001    0.27046995    -0.22180000
opls_145-21    C    0.61039996    0.23423001    0.30184994    -0.24480000
opls_142-22    C    0.56748995    0.14374996    0.36361944    0.08940000
opls_145-23    C    0.55087993    0.08676994    0.48935999    0.18600000
opls_145-24    C    0.56287994    0.06781996    0.62799954    -0.24880000
opls_145-25    C    0.54393991    0.03348005    0.64731932    0.09410000
opls_145-26    C    0.51115998    0.01718007    0.52822935    0.00140000
opls_145-27    C    0.49990012    0.03691002    0.38608066    -0.22430000
opls_145-28    C    0.51902001    0.07081001    0.36628059    -0.22680000
opls_135-29    C    0.56128993    0.01766992    0.79172010    -0.43430000
opls_642-30    C    0.63941002    0.33608004    0.49951051    0.44660000
opls_166-31    C    0.75661005    0.39674994    0.46005975    0.24860000
opls_145-32    C    0.78112006    0.42694008    0.57798001    -0.24670000
opls_145-33    C    0.81407989    0.43615991    0.54680915    -0.22160000
opls_145-34    C    0.82346012    0.41540007    0.39411927    0.00800000
opls_145-35    C    0.79872011    0.38534999    0.27046995    -0.22190000
opls_145-36    C    0.76577004    0.37617011    0.30184994    -0.24480000
opls_142-37    C    0.85625014    0.42374006    0.36361944    0.08940000
opls_145-38    C    0.91323001    0.46411001    0.48935999    0.18600000
opls_145-39    C    0.93217989    0.49505989    0.62799954    -0.24890000
opls_145-40    C    0.96651993    0.51046007    0.64731932    0.09410000
opls_145-41    C    0.98282006    0.49398007    0.52822935    0.00140000
opls_145-42    C    0.96308990    0.46298999    0.38608066    -0.22430000
opls_145-43    C    0.92918990    0.44821000    0.36628059    -0.22680000
opls_135-44    C    0.98232997    0.54362004    0.79172010    -0.43430000
opls_642-45    C    0.33608000    0.69666997    0.49951051    0.44670000
opls_166-46    C    0.39675003    0.64014011    0.46005975    0.24860000
opls_145-47    C    0.42694005    0.64582011    0.57798001    -0.24670000
opls_145-48    C    0.43616000    0.62207995    0.54680915    -0.22160000
opls_145-49    C    0.41539995    0.59193999    0.39411927    0.00800000
opls_145-50    C    0.38534991    0.58663000    0.27046995    -0.22190000
opls_145-51    C    0.37616988    0.61039987    0.30184994    -0.24480000
opls_142-52    C    0.42374009    0.56749002    0.36361944    0.08940000
opls_145-53    C    0.46410994    0.55087995    0.48935999    0.18600000
opls_145-54    C    0.49505996    0.56288011    0.62799954    -0.24890000
opls_145-55    C    0.51046007    0.54394012    0.64731932    0.09410000
opls_145-56    C    0.49397992    0.51115989    0.52822935    0.00140000
opls_145-57    C    0.46299001    0.49990001    0.38608066    -0.22430000
opls_145-58    C    0.44820991    0.51902001    0.36628059    -0.22680000
opls_135-59    C    0.54361990    0.56128996    0.79172010    -0.43430000
opls_642-60    C    0.30333002    0.63941007    0.49951051    0.44660000
opls_166-61    C    0.35986014    0.75661009    0.46005975    0.24860000
opls_145-62    C    0.35418000    0.78111998    0.57798001    -0.24670000
opls_145-63    C    0.37791989    0.81407996    0.54680915    -0.22160000
opls_145-64    C    0.40805995    0.82346008    0.39411927    0.00800000
opls_145-65    C    0.41336997    0.79871999    0.27046995    -0.22190000
opls_145-66    C    0.38960004    0.76576999    0.30184994    -0.24470000
opls_142-67    C    0.43251005    0.85625004    0.36361944    0.08940000
opls_145-68    C    0.44912007    0.91323006    0.48935999    0.18600000
opls_145-69    C    0.43712006    0.93218004    0.62799954    -0.24890000
opls_145-70    C    0.45606009    0.96651995    0.64731932    0.09410000
opls_145-71    C    0.48884002    0.98281993    0.52822935    0.00140000
opls_145-72    C    0.50009988    0.96308998    0.38608066    -0.22430000
opls_145-73    C    0.48097999    0.92918999    0.36628059    -0.22670000
opls_135-74    C    0.43871007    0.98233008    0.79172010    -0.43420000
opls_642-75    C    0.36058998    0.66391996    0.49951051    0.44670000
opls_166-76    C    0.24338995    0.60325006    0.46005975    0.24860000
opls_145-77    C    0.21887994    0.57305992    0.57798001    -0.24660000
opls_145-78    C    0.18592011    0.56384009    0.54680915    -0.22150000
opls_145-79    C    0.17653988    0.58459993    0.39411927    0.00800000
opls_145-80    C    0.20127989    0.61465001    0.27046995    -0.22190000
opls_145-81    C    0.23422996    0.62382989    0.30184994    -0.24480000
opls_142-82    C    0.14374986    0.57625994    0.36361944    0.08940000
opls_145-83    C    0.08676999    0.53588999    0.48935999    0.18600000
opls_145-84    C    0.06782011    0.50494011    0.62799954    -0.24890000
opls_145-85    C    0.03348007    0.48953993    0.64731932    0.09410000
opls_145-86    C    0.01717994    0.50601993    0.52822935    0.00140000
opls_145-87    C    0.03691010    0.53701001    0.38608066    -0.22430000
opls_145-88    C    0.07081010    0.55179000    0.36628059    -0.22680000
opls_135-89    C    0.01767003    0.45637996    0.79172010    -0.43430000
opls_641-90    N    0.69328006    0.33087990    0.50085028    -0.38240000
opls_750-91    N    0.54818994    0.42884008    0.48558888    -0.19540000
opls_641-92    N    0.66912000    0.36240004    0.50085028    -0.38250000
opls_750-93    N    0.57116001    0.11934993    0.48558888    -0.19540000
opls_641-94    N    0.63759994    0.30672005    0.50085028    -0.38240000
opls_750-95    N    0.88065006    0.45181000    0.48558888    -0.19550000
opls_641-96    N    0.30671994    0.66912010    0.50085028    -0.38230000
opls_750-97    N    0.45181006    0.57115992    0.48558888    -0.19550000
opls_641-98    N    0.33088000    0.63759996    0.50085028    -0.38250000
opls_750-99    N    0.42883999    0.88065007    0.48558888    -0.19550000
opls_641-100    N    0.36240006    0.69327995    0.50085028    -0.38240000
opls_750-101    N    0.11934994    0.54819000    0.48558888    -0.19550000
opls_180-102    O    0.61008997    0.33550006    0.50520051    -0.39430000
opls_180-103    O    0.66449998    0.27458997    0.50520051    -0.39440000
opls_180-104    O    0.72541005    0.38990997    0.50520051    -0.39430000
opls_180-105    O    0.38991003    0.66449994    0.50520051    -0.39430000
opls_180-106    O    0.33550002    0.72541003    0.50520051    -0.39440000
opls_180-107    O    0.27458995    0.61009003    0.50520051    -0.39440000
opls_146-108    H    0.55763004    0.33266006    0.69001953    0.22020000
opls_146-109    H    0.54178998    0.37285998    0.63828105    0.21990000
opls_146-110    H    0.63024987    0.43466987    0.15531886    0.22020000
opls_146-111    H    0.64548008    0.39417010    0.20520051    0.21950000
opls_144-112    H    0.59197994    0.45364008    0.24723888    0.10330000
opls_146-113    H    0.49327995    0.41380992    0.71627025    0.21990000
opls_146-114    H    0.54973997    0.52296006    0.29445938    0.22020000
opls_146-115    H    0.57422988    0.49071987    0.26191888    0.22000000
opls_140-116    H    0.44054994    0.41774996    0.64102953    0.10320000
opls_140-117    H    0.44500994    0.45344010    0.81266000    0.14530000
opls_140-118    H    0.45730005    0.43002002    0.03507986    0.07540000
opls_146-119    H    0.66734004    0.22496998    0.69001953    0.22020000
opls_146-120    H    0.62714000    0.16892997    0.63828105    0.21990000
opls_146-121    H    0.56533004    0.19558004    0.15531886    0.22020000
opls_146-122    H    0.60583008    0.25130996    0.20520051    0.21950000
opls_144-123    H    0.54636008    0.13834011    0.24723888    0.10330000
opls_146-124    H    0.58619014    0.07947008    0.71627025    0.21990000
opls_146-125    H    0.47703990    0.02677989    0.29445938    0.22010000
opls_146-126    H    0.50927994    0.08351000    0.26191888    0.22010000
opls_140-127    H    0.58224992    0.02279990    0.64102953    0.10330000
opls_140-128    H    0.54655987    0.99156988    0.81266000    0.14540000
opls_140-129    H    0.56997993    0.02727998    0.03507986    0.07540000
opls_146-130    H    0.77502992    0.44236996    0.69001953    0.22020000
opls_146-131    H    0.83107002    0.45821005    0.63828105    0.22000000
opls_146-132    H    0.80442009    0.36975009    0.15531886    0.22030000
opls_146-133    H    0.74869006    0.35451994    0.20520051    0.21950000
opls_144-134    H    0.86166011    0.40802006    0.24723888    0.10330000
opls_146-135    H    0.92052991    0.50672000    0.71627025    0.21990000
opls_146-136    H    0.97321991    0.45026005    0.29445938    0.22010000
opls_146-137    H    0.91648983    0.42576987    0.26191888    0.22000000
opls_140-138    H    0.97720001    0.55944988    0.64102953    0.10320000
opls_140-139    H    0.00842996    0.55499003    0.81266000    0.14540000
opls_140-140    H    0.97272002    0.54270000    0.03507986    0.07540000
opls_146-141    H    0.44236996    0.66733994    0.69001953    0.22020000
opls_146-142    H    0.45821002    0.62714002    0.63828105    0.21990000
opls_146-143    H    0.36975000    0.56532987    0.15531886    0.22020000
opls_146-144    H    0.35451992    0.60582990    0.20520051    0.21950000
opls_144-145    H    0.40802006    0.54635992    0.24723888    0.10330000
opls_146-146    H    0.50672005    0.58619008    0.71627025    0.22000000
opls_146-147    H    0.45026003    0.47703994    0.29445938    0.22010000
opls_146-148    H    0.42576999    0.50927987    0.26191888    0.22000000
opls_140-149    H    0.55945006    0.58225004    0.64102953    0.10320000
opls_140-150    H    0.55499006    0.54655990    0.81266000    0.14530000
opls_140-151    H    0.54269995    0.56997998    0.03507986    0.07550000
opls_146-152    H    0.33265996    0.77503002    0.69001953    0.22020000
opls_146-153    H    0.37286000    0.83107003    0.63828105    0.21990000
opls_146-154    H    0.43466996    0.80441996    0.15531886    0.22020000
opls_146-155    H    0.39416992    0.74869004    0.20520051    0.21950000
opls_144-156    H    0.45363992    0.86165989    0.24723888    0.10330000
opls_146-157    H    0.41380986    0.92052992    0.71627025    0.21990000
opls_146-158    H    0.52296010    0.97322011    0.29445938    0.22020000
opls_146-159    H    0.49072006    0.91649000    0.26191888    0.22000000
opls_140-160    H    0.41775008    0.97720010    0.64102953    0.10320000
opls_140-161    H    0.45344000    0.00842987    0.81266000    0.14530000
opls_140-162    H    0.43002007    0.97272002    0.03507986    0.07550000
opls_146-163    H    0.22497008    0.55763004    0.69001953    0.22020000
opls_146-164    H    0.16892998    0.54178995    0.63828105    0.21990000
opls_146-165    H    0.19557991    0.63024991    0.15531886    0.22030000
opls_146-166    H    0.25130994    0.64548006    0.20520051    0.21950000
opls_144-167    H    0.13833989    0.59197994    0.24723888    0.10330000
opls_146-168    H    0.07947009    0.49328000    0.71627025    0.22000000
opls_146-169    H    0.02678009    0.54973995    0.29445938    0.22010000
opls_146-170    H    0.08351004    0.57422987    0.26191888    0.22000000
opls_140-171    H    0.02279999    0.44055012    0.64102953    0.10320000
opls_140-172    H    0.99157004    0.44500997    0.81266000    0.14530000
opls_140-173    H    0.02727998    0.45730000    0.03507986    0.07540000
