#======================================================================
# Crystal Data Generated By AuToFF
#----------------------------------------------------------------------

data_AuToFF_phase_1

_cell_length_a                         37.8099
_cell_length_b                         37.8099
_cell_length_c                         3.4763
_cell_angle_alpha                      90.00
_cell_angle_beta                       90.00
_cell_angle_gamma                      120.00
_symmetry_space_group_name_H-M_alt     'P 1'
_symmetry_space_group_IT_number        1

loop_
_space_group_symop_operation_xyz
   'x, y, z'

loop_
   _atom_site_label
   _atom_site_type_symbol
   _atom_site_fract_x
   _atom_site_fract_y
   _atom_site_fract_z
   _atom_site_charge
MOF2_B_2-0    B    0.84268998    0.42134012    0.50000000    0.59280000
MOF2_B_2-1    B    0.57866020    0.42135020    0.50000000    0.59280000
MOF2_B_2-2    B    0.57866002    0.15730998    0.50000000    0.59280000
MOF2_B_2-3    B    0.15731017    0.57866018    0.50000000    0.59280000
MOF2_B_2-4    B    0.42135001    0.57866018    0.50000000    0.59280000
MOF2_B_2-5    B    0.42135003    0.84269002    0.50000000    0.59280000
opls_145-6    C    0.88995008    0.44497994    0.50000000    -0.22900000
opls_700-7    C    0.97683009    0.48842013    0.50000000    0.06540000
opls_145-8    C    0.55502986    0.44497994    0.50000000    -0.22900000
opls_700-9    C    0.51159004    0.48842013    0.50000000    0.06530000
opls_145-10    C    0.55502997    0.11004989    0.50000000    -0.22900000
opls_700-11    C    0.51159008    0.02317012    0.50000000    0.06540000
opls_145-12    C    0.11005020    0.55503014    0.50000000    -0.22900000
opls_700-13    C    0.02317006    0.51158017    0.50000000    0.06540000
opls_145-14    C    0.44497994    0.55503014    0.50000000    -0.22900000
opls_700-15    C    0.48842016    0.51158017    0.50000000    0.06540000
opls_145-16    C    0.44498008    0.88995011    0.50000000    -0.22900000
opls_700-17    C    0.48842012    0.97683019    0.50000000    0.06540000
opls_145-18    C    0.91150010    0.42389995    0.50000000    -0.05990000
opls_145-19    C    0.95416991    0.44513997    0.50000000    -0.12520000
opls_700-20    C    0.70446985    0.33322991    0.50000000    0.03510000
opls_166-21    C    0.77887003    0.37144019    0.50000000    0.18210000
opls_145-22    C    0.74277008    0.33436018    0.50000000    -0.22950000
opls_145-23    C    0.57610008    0.48760014    0.50000000    -0.04860000
opls_145-24    C    0.55485994    0.50903011    0.50000000    -0.12630000
opls_700-25    C    0.66676999    0.37124015    0.50000000    0.03510000
opls_166-26    C    0.62856004    0.40742993    0.50000000    0.18210000
opls_145-27    C    0.66563994    0.40840994    0.50000000    -0.22950000
opls_145-28    C    0.51239983    0.08849990    0.50000000    -0.05990000
opls_145-29    C    0.49096989    0.04582992    0.50000000    -0.12520000
opls_700-30    C    0.62875990    0.29552994    0.50000000    0.03510000
opls_166-31    C    0.59256992    0.22112989    0.50000000    0.18210000
opls_145-32    C    0.59159013    0.25723018    0.50000000    -0.22950000
opls_145-33    C    0.08849990    0.57610005    0.50000000    -0.04860000
opls_145-34    C    0.04583009    0.55486003    0.50000000    -0.12520000
opls_700-35    C    0.29553015    0.66677009    0.50000000    0.03510000
opls_166-36    C    0.22113012    0.62856012    0.50000000    0.18210000
opls_145-37    C    0.25723007    0.66564013    0.50000000    -0.22950000
opls_145-38    C    0.42390007    0.51240016    0.50000000    -0.05990000
opls_145-39    C    0.44514021    0.49097019    0.50000000    -0.12510000
opls_700-40    C    0.33323017    0.62876015    0.50000000    0.03510000
opls_166-41    C    0.37143996    0.59257007    0.50000000    0.18210000
opls_145-42    C    0.33436006    0.59159006    0.50000000    -0.22950000
opls_145-43    C    0.48760017    0.91150010    0.50000000    -0.04860000
opls_145-44    C    0.50903011    0.95417008    0.50000000    -0.12630000
opls_700-45    C    0.37124010    0.70447006    0.50000000    0.03510000
opls_166-46    C    0.40743008    0.77887011    0.50000000    0.18220000
opls_145-47    C    0.40841002    0.74277012    0.50000000    -0.22940000
opls_145-48    C    0.42389993    0.91150010    0.50000000    -0.05990000
opls_145-49    C    0.44513997    0.95417008    0.50000000    -0.12520000
opls_700-50    C    0.33322995    0.70447006    0.50000000    0.03510000
opls_166-51    C    0.37144003    0.77887011    0.50000000    0.18210000
opls_145-52    C    0.33436010    0.74277012    0.50000000    -0.22950000
opls_145-53    C    0.48760014    0.57610005    0.50000000    -0.04860000
opls_145-54    C    0.50902994    0.55486003    0.50000000    -0.12520000
opls_700-55    C    0.37123995    0.66677009    0.50000000    0.03510000
opls_166-56    C    0.40743000    0.62856012    0.50000000    0.18210000
opls_145-57    C    0.40841005    0.66564013    0.50000000    -0.22950000
opls_145-58    C    0.08850009    0.51240016    0.50000000    -0.05990000
opls_145-59    C    0.04582998    0.49097019    0.50000000    -0.12630000
opls_700-60    C    0.29552999    0.62876015    0.50000000    0.03510000
opls_166-61    C    0.22113012    0.59257007    0.50000000    0.18210000
opls_145-62    C    0.25723000    0.59159006    0.50000000    -0.22940000
opls_145-63    C    0.57610007    0.08849990    0.50000000    -0.04860000
opls_145-64    C    0.55486003    0.04582992    0.50000000    -0.12630000
opls_700-65    C    0.66677005    0.29552994    0.50000000    0.03510000
opls_166-66    C    0.62855997    0.22112989    0.50000000    0.18220000
opls_145-67    C    0.66564005    0.25723018    0.50000000    -0.22940000
opls_145-68    C    0.51239986    0.42389995    0.50000000    -0.05990000
opls_145-69    C    0.49097006    0.44513997    0.50000000    -0.12520000
opls_700-70    C    0.62876005    0.33322991    0.50000000    0.03520000
opls_166-71    C    0.59257015    0.37144019    0.50000000    0.18210000
opls_145-72    C    0.59159010    0.33436018    0.50000000    -0.22950000
opls_145-73    C    0.91150007    0.48760014    0.50000000    -0.04860000
opls_145-74    C    0.95417017    0.50903011    0.50000000    -0.12630000
opls_700-75    C    0.70447016    0.37124015    0.50000000    0.03510000
opls_166-76    C    0.77886988    0.40742993    0.50000000    0.18220000
opls_145-77    C    0.74277000    0.40840994    0.50000000    -0.22950000
opls_167-78    O    0.81778009    0.37649999    0.50000000    -0.33980000
opls_167-79    O    0.62350013    0.44128006    0.50000000    -0.33970000
opls_167-80    O    0.55872004    0.18221994    0.50000000    -0.33980000
opls_167-81    O    0.18221991    0.62350001    0.50000000    -0.33980000
opls_167-82    O    0.37649987    0.55871994    0.50000000    -0.33980000
opls_167-83    O    0.44127996    0.81778006    0.50000000    -0.33970000
opls_167-84    O    0.37650010    0.81778006    0.50000000    -0.33980000
opls_167-85    O    0.44128010    0.62350001    0.50000000    -0.33980000
opls_167-86    O    0.18222007    0.55871994    0.50000000    -0.33980000
opls_167-87    O    0.62349990    0.18221994    0.50000000    -0.33980000
opls_167-88    O    0.55871990    0.37649999    0.50000000    -0.33970000
opls_167-89    O    0.81777993    0.44128006    0.50000000    -0.33980000
opls_146-90    H    0.74614998    0.30779008    0.50000000    0.10050000
opls_146-91    H    0.89543010    0.39080995    0.50000000    0.11870000
opls_146-92    H    0.96838003    0.42662012    0.50000000    0.09810000
opls_146-93    H    0.69221016    0.43836017    0.50000000    0.10050000
opls_146-94    H    0.60919017    0.50462019    0.50000000    0.11870000
opls_146-95    H    0.57337990    0.54176005    0.50000000    0.09810000
opls_146-96    H    0.56164001    0.25385006    0.50000000    0.10050000
opls_146-97    H    0.49538015    0.10457017    0.50000000    0.11870000
opls_146-98    H    0.45823996    0.03162013    0.50000000    0.09810000
opls_146-99    H    0.25385017    0.69221022    0.50000000    0.10050000
opls_146-100    H    0.10456990    0.60919005    0.50000000    0.11870000
opls_146-101    H    0.03162012    0.57338019    0.50000000    0.09810000
opls_146-102    H    0.30778999    0.56164014    0.50000000    0.10050000
opls_146-103    H    0.39080998    0.49538012    0.50000000    0.11870000
opls_146-104    H    0.42662010    0.45823995    0.50000000    0.09820000
opls_146-105    H    0.43835999    0.74614994    0.50000000    0.10050000
opls_146-106    H    0.50462001    0.89543014    0.50000000    0.11870000
opls_146-107    H    0.54176019    0.96838017    0.50000000    0.09810000
opls_146-108    H    0.30778995    0.74614994    0.50000000    0.10050000
opls_146-109    H    0.39081013    0.89543014    0.50000000    0.11870000
opls_146-110    H    0.42661998    0.96838017    0.50000000    0.09810000
opls_146-111    H    0.43836005    0.69221022    0.50000000    0.10060000
opls_146-112    H    0.50462015    0.60919005    0.50000000    0.11870000
opls_146-113    H    0.54176006    0.57338019    0.50000000    0.09810000
opls_146-114    H    0.25385015    0.56164014    0.50000000    0.10050000
opls_146-115    H    0.10457013    0.49538012    0.50000000    0.11870000
opls_146-116    H    0.03161985    0.45823995    0.50000000    0.09810000
opls_146-117    H    0.69221005    0.25385006    0.50000000    0.10050000
opls_146-118    H    0.60919002    0.10457017    0.50000000    0.11880000
opls_146-119    H    0.57338017    0.03162013    0.50000000    0.09810000
opls_146-120    H    0.56164010    0.30779008    0.50000000    0.10050000
opls_146-121    H    0.49537985    0.39080995    0.50000000    0.11870000
opls_146-122    H    0.45824009    0.42662012    0.50000000    0.09810000
opls_146-123    H    0.74615000    0.43836017    0.50000000    0.10050000
opls_146-124    H    0.89543002    0.50462019    0.50000000    0.11870000
opls_146-125    H    0.96838015    0.54176005    0.50000000    0.09810000
