#======================================================================
# Crystal Data Generated By AuToFF
#----------------------------------------------------------------------

data_AuToFF_phase_1

_cell_length_a                         28.9774
_cell_length_b                         6.8442
_cell_length_c                         28.9745
_cell_angle_alpha                      90.00
_cell_angle_beta                       89.85
_cell_angle_gamma                      90.00
_symmetry_space_group_name_H-M_alt     'P 1'
_symmetry_space_group_IT_number        1

loop_
_space_group_symop_operation_xyz
   'x, y, z'

loop_
   _atom_site_label
   _atom_site_type_symbol
   _atom_site_fract_x
   _atom_site_fract_y
   _atom_site_fract_z
   _atom_site_charge
opls_542-0    N    0.94032009    0.50000000    0.04356016    -0.30580000
opls_542-1    N    0.05967991    0.50000000    0.95643984    -0.30580000
opls_542-2    N    0.04272001    0.50000000    0.05863001    -0.31890000
opls_542-3    N    0.95727999    0.50000000    0.94136999    -0.31890000
opls_750-4    N    0.61445987    0.50000000    0.97957991    -0.10020000
opls_750-5    N    0.38554013    0.50000000    0.02042009    -0.10020000
opls_238-6    N    0.65897999    0.50000000    0.98479003    -0.25050000
opls_238-7    N    0.34103001    0.50000000    0.01520997    -0.25050000
opls_750-8    N    0.02048001    0.50000000    0.61436005    -0.10020000
opls_750-9    N    0.97951999    0.50000000    0.38563995    -0.10020000
opls_238-10    N    0.01530007    0.50000000    0.65891005    -0.25050000
opls_238-11    N    0.98469993    0.50000000    0.34108995    -0.25050000
opls_545-12    H    0.96738984    0.50000000    0.02379997    0.27140000
opls_545-13    H    0.03260981    0.50000000    0.97620003    0.27140000
opls_547-14    H    0.88478982    0.50000000    0.13851982    0.22640000
opls_547-15    H    0.11520984    0.50000000    0.86147984    0.22640000
opls_547-16    H    0.83302007    0.50000000    0.06746988    0.22640000
opls_547-17    H    0.16697993    0.50000000    0.93252977    0.22640000
opls_547-18    H    0.06682014    0.50000000    0.16650003    0.22640000
opls_547-19    H    0.93317986    0.50000000    0.83349997    0.22640000
opls_547-20    H    0.86203983    0.50000000    0.88542994    0.22640000
opls_547-21    H    0.13796984    0.50000000    0.11457006    0.22640000
opls_146-22    H    0.97244015    0.19156950    0.17448983    0.22640000
opls_146-23    H    0.02755985    0.19156950    0.82550982    0.22640000
opls_146-24    H    0.02755985    0.80843050    0.82550982    0.22640000
opls_146-25    H    0.97244015    0.80843050    0.17448983    0.22640000
opls_146-26    H    0.82562992    0.80843050    0.97265000    0.22640000
opls_146-27    H    0.17437008    0.80843050    0.02735000    0.22640000
opls_146-28    H    0.17437008    0.19156950    0.02735000    0.22640000
opls_146-29    H    0.82562992    0.19156950    0.97265000    0.22640000
opls_146-30    H    0.95827993    0.19144969    0.25655984    0.22650000
opls_146-31    H    0.04172005    0.19144969    0.74344982    0.22640000
opls_146-32    H    0.04172005    0.80854008    0.74344982    0.22640000
opls_146-33    H    0.95827993    0.80854008    0.25655984    0.22640000
opls_146-34    H    0.74366000    0.80854008    0.95841986    0.22640000
opls_146-35    H    0.25634000    0.80854008    0.04158014    0.22640000
opls_146-36    H    0.25634000    0.19144969    0.04158014    0.22640000
opls_146-37    H    0.74366000    0.19144969    0.95841986    0.22640000
opls_910-38    H    0.67179990    0.50000000    0.01559997    0.24970000
opls_910-39    H    0.32820010    0.50000000    0.98440003    0.24980000
opls_144-40    H    0.40443987    0.50000000    0.95170980    0.11040000
opls_144-41    H    0.59556013    0.50000000    0.04828985    0.11040000
opls_910-42    H    0.98450007    0.50000000    0.67189979    0.24970000
opls_910-43    H    0.01549993    0.50000000    0.32809986    0.24970000
opls_144-44    H    0.04823011    0.50000000    0.40415008    0.11040000
opls_144-45    H    0.95176989    0.50000000    0.59584992    0.11050000
opls_543-46    C    0.94207006    0.50000000    0.09013989    0.16670000
opls_543-47    C    0.05792994    0.50000000    0.90985977    0.16680000
opls_543-48    C    0.89654000    0.50000000    0.02766993    0.16670000
opls_543-49    C    0.10346000    0.50000000    0.97233007    0.16670000
opls_716-50    C    0.89624985    0.50000000    0.10513001    -0.21340000
opls_716-51    C    0.10374981    0.50000000    0.89486999    -0.21340000
opls_716-52    C    0.86828008    0.50000000    0.06673993    -0.21300000
opls_716-53    C    0.13172992    0.50000000    0.93326007    -0.21300000
opls_507-54    C    0.02734012    0.50000000    0.10288009    0.17040000
opls_507-55    C    0.97265988    0.50000000    0.89711991    0.17040000
opls_507-56    C    0.91048995    0.50000000    0.94250996    0.17050000
opls_507-57    C    0.08951005    0.50000000    0.05749004    0.17050000
opls_716-58    C    0.06621003    0.50000000    0.13121993    -0.21340000
opls_716-59    C    0.93378997    0.50000000    0.86878007    -0.21340000
opls_716-60    C    0.89541983    0.50000000    0.89678996    -0.21320000
opls_716-61    C    0.10457982    0.50000000    0.10321004    -0.21330000
opls_700-62    C    0.98124997    0.50000000    0.11911994    -0.07440000
opls_700-63    C    0.01875003    0.50000000    0.88088006    -0.07440000
opls_700-64    C    0.88094998    0.50000000    0.98147986    -0.07440000
opls_700-65    C    0.11905002    0.50000000    0.01852014    -0.07910000
opls_700-66    C    0.97364996    0.50000000    0.16731005    0.08300000
opls_700-67    C    0.02636005    0.50000000    0.83268995    0.08300000
opls_700-68    C    0.83281006    0.50000000    0.97385003    0.08760000
opls_700-69    C    0.16719995    0.50000000    0.02614997    0.08760000
opls_145-70    C    0.96961011    0.32191052    0.19161011    -0.18320000
opls_145-71    C    0.03038989    0.32191052    0.80838989    -0.18320000
opls_145-72    C    0.03038989    0.67808071    0.80838989    -0.18310000
opls_145-73    C    0.96961011    0.67808071    0.19161011    -0.18320000
opls_145-74    C    0.80853001    0.67808071    0.96979990    -0.18320000
opls_145-75    C    0.19146999    0.67808071    0.03020010    -0.18320000
opls_145-76    C    0.19146999    0.32191052    0.03020010    -0.18320000
opls_145-77    C    0.80853001    0.32191052    0.96979990    -0.18320000
opls_145-78    C    0.96142003    0.32191052    0.23950997    -0.18300000
opls_145-79    C    0.03857997    0.32191052    0.76049003    -0.18310000
opls_145-80    C    0.03857997    0.67808948    0.76049003    -0.18310000
opls_145-81    C    0.96142003    0.67808948    0.23950997    -0.18310000
opls_145-82    C    0.76067977    0.67808948    0.96156988    -0.18310000
opls_145-83    C    0.23931989    0.67808948    0.03843012    -0.18310000
opls_145-84    C    0.23931989    0.32191052    0.03843012    -0.18310000
opls_145-85    C    0.76067977    0.32191052    0.96156988    -0.18310000
opls_700-86    C    0.95721993    0.50000000    0.26386008    0.00700000
opls_700-87    C    0.04278007    0.50000000    0.73613992    0.00700000
opls_700-88    C    0.73635975    0.50000000    0.95735996    0.00700000
opls_700-89    C    0.26363990    0.50000000    0.04264004    0.00700000
opls_700-90    C    0.53462999    0.50000000    0.00575991    -0.11390000
opls_700-91    C    0.46537001    0.50000000    0.99423974    -0.11380000
opls_280-92    C    0.49431994    0.50000000    0.03409008    0.26610000
opls_280-93    C    0.50568006    0.50000000    0.96590992    0.26610000
opls_142-94    C    0.58425005    0.50000000    0.01488003    -0.00680000
opls_142-95    C    0.41574995    0.50000000    0.98511997    -0.00680000
opls_234-96    C    0.68872999    0.50000000    0.94887005    0.40740000
opls_234-97    C    0.31127001    0.50000000    0.05112995    0.40740000
opls_700-98    C    0.99425998    0.50000000    0.53467008    -0.11330000
opls_700-99    C    0.00575003    0.50000000    0.46532992    -0.11330000
opls_280-100    C    0.96590992    0.50000000    0.49450981    0.26620000
opls_280-101    C    0.03409008    0.50000000    0.50548984    0.26610000
opls_142-102    C    0.98516986    0.50000000    0.58434978    -0.00670000
opls_142-103    C    0.01483014    0.50000000    0.41564988    -0.00670000
opls_234-104    C    0.05123981    0.50000000    0.68845992    0.40740000
opls_234-105    C    0.94875985    0.50000000    0.31154008    0.40740000
opls_281-106    O    0.48808014    0.50000000    0.07566988    -0.38520000
opls_281-107    O    0.51192986    0.50000000    0.92432978    -0.38520000
opls_236-108    O    0.67516008    0.50000000    0.90788976    -0.55320000
opls_236-109    O    0.32483992    0.50000000    0.09210990    -0.55330000
opls_281-110    O    0.92432998    0.50000000    0.48850002    -0.38520000
opls_281-111    O    0.07567002    0.50000000    0.51149998    -0.38520000
opls_236-112    O    0.09219980    0.50000000    0.67464980    -0.55480000
opls_236-113    O    0.90779986    0.50000000    0.32534985    -0.55490000
