#======================================================================
# Crystal Data Generated By AuToFF
#----------------------------------------------------------------------

data_AuToFF_phase_1

_cell_length_a                         26.2100
_cell_length_b                         26.2100
_cell_length_c                         3.8100
_cell_angle_alpha                      90.00
_cell_angle_beta                       90.00
_cell_angle_gamma                      120.00
_symmetry_space_group_name_H-M_alt     'P 1'
_symmetry_space_group_IT_number        1

loop_
_space_group_symop_operation_xyz
   'x, y, z'

loop_
   _atom_site_label
   _atom_site_type_symbol
   _atom_site_fract_x
   _atom_site_fract_y
   _atom_site_fract_z
   _atom_site_charge
opls_145-0    C    0.25653009    0.81317997    0.31535958    -0.17260000
opls_145-1    C    0.28819981    0.78331989    0.29904987    -0.13450000
opls_700-2    C    0.26621016    0.72769999    0.45792126    0.06590000
opls_145-3    C    0.21111986    0.70260982    0.62728084    -0.13490000
opls_145-4    C    0.17909993    0.73218001    0.63776903    -0.17200000
opls_145-5    C    0.20207002    0.78827968    0.48495013    0.18440000
opls_700-6    C    0.30065969    0.69632967    0.45004987    0.06700000
opls_145-7    C    0.09736998    0.22580978    0.47887927    -0.12830000
opls_145-8    C    0.06051009    0.16466000    0.47043045    -0.13450000
opls_700-9    C    0.07739010    0.12718004    0.63418110    0.06590000
opls_145-10    C    0.13255995    0.15283985    0.80307087    -0.13450000
opls_145-11    C    0.16967996    0.21393985    0.80702100    -0.12010000
opls_700-12    C    0.15230977    0.25095986    0.64691076    0.05410000
opls_700-13    C    0.03764993    0.06185995    0.63055906    0.06670000
opls_145-14    C    0.97610990    0.03714998    0.63020997    -0.17850000
opls_142-15    C    0.12377016    0.80834001    0.66092913    0.06770000
opls_145-16    C    0.27184979    0.63443976    0.44924934    -0.18060000
opls_145-17    C    0.18681991    0.44334986    0.31535958    -0.17260000
opls_145-18    C    0.21667990    0.50487983    0.29904987    -0.13450000
opls_700-19    C    0.27229990    0.53850976    0.45792126    0.06590000
opls_145-20    C    0.29739007    0.50851002    0.62728084    -0.13490000
opls_145-21    C    0.26782023    0.44692013    0.63776903    -0.17200000
opls_145-22    C    0.21171977    0.41378979    0.48495013    0.18440000
opls_700-23    C    0.30367009    0.60432988    0.45004987    0.06700000
opls_145-24    C    0.77419013    0.87155996    0.47887927    -0.12830000
opls_145-25    C    0.83533993    0.89584964    0.47043045    -0.13450000
opls_700-26    C    0.87281999    0.95020999    0.63418110    0.06590000
opls_145-27    C    0.84715980    0.97971983    0.80307087    -0.13450000
opls_145-28    C    0.78605994    0.95573987    0.80702100    -0.12010000
opls_700-29    C    0.74904013    0.90135000    0.64691076    0.05410000
opls_700-30    C    0.93813976    0.97578962    0.63055906    0.06670000
opls_145-31    C    0.96285005    0.93895992    0.63020997    -0.17850000
opls_142-32    C    0.19166012    0.31543012    0.66092913    0.06770000
opls_145-33    C    0.36556002    0.63741000    0.44924934    -0.18060000
opls_145-34    C    0.55664978    0.74346973    0.31535958    -0.17250000
opls_145-35    C    0.49512006    0.71179984    0.29904987    -0.13450000
opls_700-36    C    0.46148972    0.73378981    0.45792126    0.06590000
opls_145-37    C    0.49148984    0.78887972    0.62728084    -0.13490000
opls_145-38    C    0.55307984    0.82089986    0.63776903    -0.17190000
opls_145-39    C    0.58620977    0.79792965    0.48495013    0.18450000
opls_700-40    C    0.39567000    0.69934000    0.45004987    0.06700000
opls_145-41    C    0.12844005    0.90262982    0.47887927    -0.12830000
opls_145-42    C    0.10415015    0.93948991    0.47043045    -0.13450000
opls_700-43    C    0.04978991    0.92260997    0.63418110    0.06590000
opls_145-44    C    0.02028003    0.86743987    0.80307087    -0.13450000
opls_145-45    C    0.04425989    0.83031985    0.80702100    -0.12010000
opls_700-46    C    0.09864988    0.84768970    0.64691076    0.05410000
opls_700-47    C    0.02421009    0.96234998    0.63055906    0.06670000
opls_145-48    C    0.06104005    0.02389009    0.63020997    -0.17840000
opls_142-49    C    0.68457010    0.87622987    0.66092913    0.06770000
opls_145-50    C    0.36258997    0.72814980    0.44924934    -0.18040000
opls_750-51    N    0.64951011    0.82780999    0.49444094    -0.35010000
opls_750-52    N    0.17218990    0.82169991    0.49444094    -0.35000000
opls_750-53    N    0.17829999    0.35049010    0.49444094    -0.35000000
opls_146-54    H    0.27387991    0.85575982    0.19059055    0.11650000
opls_146-55    H    0.32909985    0.80330004    0.15356955    0.11620000
opls_146-56    H    0.19333976    0.66093972    0.76319948    0.11620000
opls_146-57    H    0.13729000    0.71115002    0.77179003    0.11760000
opls_146-58    H    0.22432994    0.60952978    0.45034121    0.11630000
opls_146-59    H    0.08347974    0.25357986    0.34887927    0.11260000
opls_146-60    H    0.01959985    0.14689982    0.32623097    0.11620000
opls_146-61    H    0.14643980    0.12599979    0.94345932    0.11620000
opls_146-62    H    0.21149991    0.23241990    0.94269029    0.11210000
opls_146-63    H    0.95764984    0.06585977    0.63076903    0.11630000
opls_144-64    H    0.10114989    0.76877974    0.81703937    0.11240000
opls_146-65    H    0.14424010    0.41812003    0.19059055    0.11650000
opls_146-66    H    0.19669992    0.52579969    0.15356955    0.11620000
opls_146-67    H    0.33906003    0.53240012    0.76319948    0.11630000
opls_146-68    H    0.28884982    0.42613993    0.77179003    0.11760000
opls_146-69    H    0.39046968    0.61479972    0.45034121    0.11630000
opls_146-70    H    0.74642005    0.82990000    0.34887927    0.11250000
opls_146-71    H    0.85309994    0.87269969    0.32623097    0.11620000
opls_146-72    H    0.87399968    0.02043965    0.94345932    0.11620000
opls_146-73    H    0.76757991    0.97907970    0.94269029    0.11210000
opls_146-74    H    0.93413990    0.89178991    0.63076903    0.11630000
opls_144-75    H    0.23122009    0.33236998    0.81703937    0.11240000
opls_146-76    H    0.58187977    0.72611971    0.19059055    0.11660000
opls_146-77    H    0.47420001    0.67089983    0.15356955    0.11620000
opls_146-78    H    0.46759999    0.80665973    0.76319948    0.11620000
opls_146-79    H    0.57386018    0.86271005    0.77179003    0.11760000
opls_146-80    H    0.38520016    0.77567005    0.45034121    0.11630000
opls_146-81    H    0.17009999    0.91651970    0.34887927    0.11250000
opls_146-82    H    0.12729977    0.98039961    0.32623097    0.11620000
opls_146-83    H    0.97955969    0.85355968    0.94345932    0.11630000
opls_146-84    H    0.02091995    0.78849996    0.94269029    0.11210000
opls_146-85    H    0.10821004    0.04234988    0.63076903    0.11630000
opls_144-86    H    0.66762980    0.89884984    0.81703937    0.11240000
