#======================================================================
# Crystal Data Generated By AuToFF
#----------------------------------------------------------------------

data_AuToFF_phase_1

_cell_length_a                         28.9789
_cell_length_b                         28.9789
_cell_length_c                         3.4496
_cell_angle_alpha                      90.00
_cell_angle_beta                       90.00
_cell_angle_gamma                      120.00
_symmetry_space_group_name_H-M_alt     'P 1'
_symmetry_space_group_IT_number        1

loop_
_space_group_symop_operation_xyz
   'x, y, z'

loop_
   _atom_site_label
   _atom_site_type_symbol
   _atom_site_fract_x
   _atom_site_fract_y
   _atom_site_fract_z
   _atom_site_charge
opls_142-0    C    0.89091004    0.41183019    0.00000000    -0.22620000
opls_522-1    C    0.94477025    0.43557020    0.00000000    -0.01780000
opls_522-2    C    0.02704012    0.51748015    0.00000000    -0.02450000
opls_521-3    C    0.05183012    0.48895023    0.00000000    0.14410000
opls_522-4    C    0.10491005    0.51263007    0.00000000    -0.25640000
opls_523-5    C    0.13502018    0.56548015    0.00000000    0.16760000
opls_142-6    C    0.22453998    0.63463014    0.00000000    0.10870000
opls_145-7    C    0.28043004    0.65116993    0.00000000    -0.10290000
opls_166-8    C    0.29622001    0.61424002    0.00000000    0.21510000
opls_521-9    C    0.97299007    0.40844007    0.00000000    0.13330000
opls_522-10    C    0.64913996    0.60392023    0.00000000    0.01340000
opls_523-11    C    0.66279993    0.65639018    0.00000000    -0.20260000
opls_145-12    C    0.71337020    0.69601011    0.00000000    -0.15840000
opls_145-13    C    0.75279006    0.68531020    0.00000000    -0.16110000
opls_523-14    C    0.69109984    0.59496001    0.00000000    -0.20440000
opls_145-15    C    0.36499990    0.10666006    0.00000000    -0.15750000
opls_523-16    C    0.58816982    0.47907992    0.00000000    -0.22620000
opls_522-17    C    0.56442996    0.50920010    0.00000000    -0.01780000
opls_522-18    C    0.48251980    0.50955991    0.00000000    -0.02450000
opls_521-19    C    0.51105026    0.56288018    0.00000000    0.13950000
opls_671-20    C    0.48737014    0.59227995    0.00000000    -0.30340000
opls_141-21    C    0.43452003    0.56954009    0.00000000    0.16060000
opls_142-22    C    0.36536997    0.58990989    0.00000000    0.09740000
opls_145-23    C    0.34883009    0.62926006    0.00000000    -0.10290000
opls_166-24    C    0.38576028    0.68198025    0.00000000    0.21510000
opls_521-25    C    0.59156010    0.56455014    0.00000000    0.13330000
opls_522-26    C    0.39607997    0.04521992    0.00000000    0.01340000
opls_523-27    C    0.34360995    0.00641007    0.00000000    -0.20260000
opls_145-28    C    0.30398995    0.01735982    0.00000000    -0.15840000
opls_145-29    C    0.31468995    0.06748004    0.00000000    -0.16110000
opls_523-30    C    0.40504000    0.09613985    0.00000000    -0.20440000
opls_145-31    C    0.89334015    0.25834002    0.00000000    -0.15750000
opls_142-32    C    0.52091979    0.10908989    0.00000000    -0.22620000
opls_522-33    C    0.49079999    0.05523010    0.00000000    -0.01780000
opls_522-34    C    0.49044029    0.97296033    0.00000000    -0.02450000
opls_521-35    C    0.43711982    0.94816998    0.00000000    0.13950000
opls_671-36    C    0.40772015    0.89508998    0.00000000    -0.30340000
opls_141-37    C    0.43045998    0.86498016    0.00000000    0.16060000
opls_142-38    C    0.41009004    0.77545997    0.00000000    0.09740000
opls_145-39    C    0.37073987    0.71957001    0.00000000    -0.10290000
opls_166-40    C    0.31801991    0.70378013    0.00000000    0.21510000
opls_521-41    C    0.43545002    0.02701018    0.00000000    0.13330000
opls_522-42    C    0.95478027    0.35086024    0.00000000    0.01340000
opls_523-43    C    0.99358998    0.33720015    0.00000000    -0.20260000
opls_145-44    C    0.98264020    0.28663007    0.00000000    -0.15840000
opls_145-45    C    0.93252019    0.24721016    0.00000000    -0.16110000
opls_523-46    C    0.90386016    0.30890014    0.00000000    -0.20440000
opls_145-47    C    0.74165995    0.63499992    0.00000000    -0.15750000
opls_523-48    C    0.10909016    0.58817020    0.00000000    -0.22620000
opls_522-49    C    0.05522995    0.56443020    0.00000000    -0.01780000
opls_522-50    C    0.97296008    0.48252024    0.00000000    -0.02450000
opls_521-51    C    0.94817008    0.51105016    0.00000000    0.13950000
opls_671-52    C    0.89508995    0.48736993    0.00000000    -0.30340000
opls_141-53    C    0.86498002    0.43452025    0.00000000    0.16060000
opls_142-54    C    0.77546002    0.36536986    0.00000000    0.10870000
opls_145-55    C    0.71956996    0.34883007    0.00000000    -0.10290000
opls_166-56    C    0.70377999    0.38575998    0.00000000    0.21510000
opls_521-57    C    0.02700993    0.59155993    0.00000000    0.13330000
opls_522-58    C    0.35086024    0.39608016    0.00000000    0.01340000
opls_523-59    C    0.33720027    0.34361021    0.00000000    -0.20260000
opls_145-60    C    0.28662980    0.30398989    0.00000000    -0.15840000
opls_145-61    C    0.24721014    0.31469020    0.00000000    -0.16110000
opls_523-62    C    0.30890016    0.40503999    0.00000000    -0.20440000
opls_145-63    C    0.63500010    0.89333994    0.00000000    -0.15750000
opls_142-64    C    0.41183018    0.52092008    0.00000000    -0.22620000
opls_522-65    C    0.43557004    0.49079990    0.00000000    -0.01780000
opls_522-66    C    0.51748020    0.49044009    0.00000000    -0.02450000
opls_521-67    C    0.48894994    0.43712022    0.00000000    0.14410000
opls_522-68    C    0.51262986    0.40772005    0.00000000    -0.25640000
opls_523-69    C    0.56547997    0.43045991    0.00000000    0.16760000
opls_142-70    C    0.63463003    0.41009011    0.00000000    0.09740000
opls_145-71    C    0.65116991    0.37073994    0.00000000    -0.10290000
opls_166-72    C    0.61423992    0.31802015    0.00000000    0.21510000
opls_521-73    C    0.40844010    0.43545026    0.00000000    0.13330000
opls_522-74    C    0.60392003    0.95478008    0.00000000    0.01340000
opls_523-75    C    0.65639025    0.99359033    0.00000000    -0.20260000
opls_145-76    C    0.69601005    0.98264018    0.00000000    -0.15840000
opls_145-77    C    0.68531005    0.93251996    0.00000000    -0.16110000
opls_523-78    C    0.59496000    0.90386015    0.00000000    -0.20440000
opls_145-79    C    0.10665985    0.74165998    0.00000000    -0.15750000
opls_142-80    C    0.47908021    0.89091011    0.00000000    -0.22620000
opls_522-81    C    0.50920021    0.94477030    0.00000000    -0.01780000
opls_522-82    C    0.50955991    0.02704007    0.00000000    -0.02450000
opls_521-83    C    0.56288018    0.05183002    0.00000000    0.13950000
opls_671-84    C    0.59227985    0.10491002    0.00000000    -0.30340000
opls_141-85    C    0.56954002    0.13501984    0.00000000    0.16060000
opls_142-86    C    0.58990996    0.22454003    0.00000000    0.10870000
opls_145-87    C    0.62926013    0.28042999    0.00000000    -0.10290000
opls_166-88    C    0.68198009    0.29621987    0.00000000    0.21510000
opls_521-89    C    0.56455017    0.97299021    0.00000000    0.13320000
opls_522-90    C    0.04521993    0.64914016    0.00000000    0.01340000
opls_523-91    C    0.00641022    0.66280025    0.00000000    -0.20260000
opls_145-92    C    0.01735980    0.71336993    0.00000000    -0.15840000
opls_145-93    C    0.06748001    0.75279023    0.00000000    -0.16110000
opls_523-94    C    0.09614004    0.69110026    0.00000000    -0.20440000
opls_145-95    C    0.25834005    0.36500008    0.00000000    -0.15750000
opls_750-96    N    0.18938009    0.58689991    0.00000000    -0.18710000
opls_520-97    N    0.02468020    0.43774022    0.00000000    -0.18280000
opls_750-98    N    0.41310010    0.60248019    0.00000000    -0.18710000
opls_520-99    N    0.56226013    0.58694015    0.00000000    -0.18280000
opls_750-100    N    0.39752000    0.81062030    0.00000000    -0.18710000
opls_520-101    N    0.41305987    0.97532003    0.00000000    -0.18280000
opls_750-102    N    0.81061991    0.41310009    0.00000000    -0.18710000
opls_520-103    N    0.97532000    0.56226018    0.00000000    -0.18280000
opls_750-104    N    0.58690010    0.39752021    0.00000000    -0.18710000
opls_520-105    N    0.43774007    0.41306025    0.00000000    -0.18280000
opls_750-106    N    0.60248020    0.18938010    0.00000000    -0.18710000
opls_520-107    N    0.58694013    0.02467997    0.00000000    -0.18280000
opls_140-108    H    0.87296991    0.51338994    0.00000000    -0.13280000
opls_525-109    H    0.12306983    0.48964993    0.00000000    0.23920000
opls_526-110    H    0.13258991    0.63601998    0.00000000    0.03650000
opls_144-111    H    0.21238009    0.66211011    0.00000000    0.11720000
opls_144-112    H    0.65881987    0.44767987    0.00000000    0.11250000
opls_526-113    H    0.63433012    0.66793006    0.00000000    0.23930000
opls_146-114    H    0.72186017    0.73522003    0.00000000    0.23930000
opls_146-115    H    0.79201016    0.71601015    0.00000000    0.23930000
opls_526-116    H    0.68921987    0.55930996    0.00000000    0.23850000
opls_146-117    H    0.37317978    0.14579985    0.00000000    0.23960000
opls_140-118    H    0.51034986    0.63342001    0.00000000    -0.13280000
opls_144-119    H    0.36397988    0.49657003    0.00000000    0.03650000
opls_526-120    H    0.33207006    0.96640004    0.00000000    0.23920000
opls_146-121    H    0.26477990    0.98663995    0.00000000    0.23930000
opls_146-122    H    0.28398999    0.07599996    0.00000000    0.23930000
opls_526-123    H    0.44069008    0.12990996    0.00000000    0.23850000
opls_146-124    H    0.85420010    0.22737988    0.00000000    0.23960000
opls_168-125    H    0.73175990    0.46586013    0.00000000    0.29070000
opls_168-126    H    0.26880019    0.73446016    0.00000000    0.35240000
opls_140-127    H    0.64041985    0.12702987    0.00000000    -0.13280000
opls_140-128    H    0.36657997    0.87693005    0.00000000    -0.13280000
opls_144-129    H    0.50342986    0.86740999    0.00000000    0.03650000
opls_526-130    H    0.03359982    0.36566990    0.00000000    0.23930000
opls_146-131    H    0.01335993    0.27814002    0.00000000    0.23930000
opls_146-132    H    0.92399985    0.20798989    0.00000000    0.23930000
opls_526-133    H    0.87009005    0.31078009    0.00000000    0.23850000
opls_146-134    H    0.77262012    0.62682028    0.00000000    0.23960000
opls_168-135    H    0.26553980    0.53433990    0.00000000    0.35240000
opls_140-136    H    0.87693017    0.51035007    0.00000000    -0.13280000
opls_144-137    H    0.86741009    0.36398002    0.00000000    0.03650000
opls_144-138    H    0.78761991    0.33788989    0.00000000    0.11730000
opls_144-139    H    0.34118013    0.55232013    0.00000000    0.11260000
opls_526-140    H    0.36566988    0.33206994    0.00000000    0.23930000
opls_146-141    H    0.27813983    0.26477997    0.00000000    0.23930000
opls_146-142    H    0.20798984    0.28398985    0.00000000    0.23930000
opls_526-143    H    0.31078013    0.44069004    0.00000000    0.23850000
opls_146-144    H    0.62682022    0.85420015    0.00000000    0.23960000
opls_168-145    H    0.53433999    0.26880006    0.00000000    0.35250000
opls_140-146    H    0.51338997    0.64042020    0.00000000    -0.13280000
opls_525-147    H    0.48965014    0.36657999    0.00000000    0.23920000
opls_526-148    H    0.63602012    0.50342997    0.00000000    0.03650000
opls_144-149    H    0.44768025    0.78886026    0.00000000    0.11260000
opls_526-150    H    0.66792994    0.03359996    0.00000000    0.23930000
opls_146-151    H    0.73522010    0.01336005    0.00000000    0.23930000
opls_146-152    H    0.71601001    0.92400004    0.00000000    0.23930000
opls_526-153    H    0.55930992    0.87009004    0.00000000    0.23850000
opls_146-154    H    0.14579990    0.77262012    0.00000000    0.23960000
opls_168-155    H    0.73119981    0.26553984    0.00000000    0.35250000
opls_140-156    H    0.35958015    0.87297013    0.00000000    -0.13280000
opls_140-157    H    0.63342003    0.12306995    0.00000000    -0.13280000
opls_144-158    H    0.49657014    0.13259001    0.00000000    0.03650000
opls_144-159    H    0.55027008    0.21238015    0.00000000    0.11730000
opls_526-160    H    0.96640018    0.63433010    0.00000000    0.23930000
opls_146-161    H    0.98664007    0.72185998    0.00000000    0.23930000
opls_146-162    H    0.07600015    0.79201011    0.00000000    0.23930000
opls_526-163    H    0.12990995    0.68921991    0.00000000    0.23850000
opls_146-164    H    0.22738008    0.37318012    0.00000000    0.23960000
opls_168-165    H    0.46586014    0.73409995    0.00000000    0.29070000
opls_167-166    O    0.25781989    0.56282998    0.00000000    -0.45560000
opls_167-167    O    0.56213002    0.30231993    0.00000000    -0.42220000
opls_167-168    O    0.43716993    0.69499005    0.00000000    -0.43530000
opls_167-169    O    0.69767980    0.25980995    0.00000000    -0.42220000
opls_167-170    O    0.30500984    0.74217997    0.00000000    -0.45560000
opls_167-171    O    0.74218011    0.43717002    0.00000000    -0.43530000
