#======================================================================
# Crystal Data Generated By AuToFF
#----------------------------------------------------------------------

data_AuToFF_phase_1

_cell_length_a                         44.3906
_cell_length_b                         44.3906
_cell_length_c                         3.4195
_cell_angle_alpha                      90.00
_cell_angle_beta                       90.00
_cell_angle_gamma                      120.00
_symmetry_space_group_name_H-M_alt     'P 1'
_symmetry_space_group_IT_number        1

loop_
_space_group_symop_operation_xyz
   'x, y, z'

loop_
   _atom_site_label
   _atom_site_type_symbol
   _atom_site_fract_x
   _atom_site_fract_y
   _atom_site_fract_z
   _atom_site_charge
opls_702-0    H    0.57959991    0.56589989    0.74810060    0.18660000
opls_702-1    H    0.43409986    0.01369988    0.74810060    0.18660000
opls_702-2    H    0.98629988    0.42039997    0.74810060    0.18660000
opls_702-3    H    0.42039996    0.43409985    0.74810060    0.18660000
opls_702-4    H    0.56590014    0.98630012    0.74810060    0.18660000
opls_702-5    H    0.01370012    0.57960003    0.74810060    0.18660000
opls_702-6    H    0.42039996    0.43409985    0.25189940    0.18660000
opls_702-7    H    0.56590014    0.98630012    0.25189940    0.18660000
opls_702-8    H    0.01370012    0.57960003    0.25189940    0.18660000
opls_702-9    H    0.57959991    0.56589989    0.25189940    0.18660000
opls_702-10    H    0.43409986    0.01369988    0.25189940    0.18660000
opls_702-11    H    0.98629988    0.42039997    0.25189940    0.18660000
opls_140-12    H    0.55369996    0.60299989    0.74829946    0.15330000
opls_140-13    H    0.39700007    0.95069998    0.74829946    0.15330000
opls_140-14    H    0.04929984    0.44629987    0.74829946    0.15330000
opls_140-15    H    0.44629991    0.39699985    0.74829946    0.15330000
opls_140-16    H    0.60299993    0.04930002    0.74829946    0.15330000
opls_140-17    H    0.95070003    0.55369987    0.74829946    0.15330000
opls_140-18    H    0.44629991    0.39699985    0.25170054    0.15330000
opls_140-19    H    0.60299993    0.04930002    0.25170054    0.15330000
opls_140-20    H    0.95070003    0.55369987    0.25170054    0.15330000
opls_140-21    H    0.55369996    0.60299989    0.25170054    0.15330000
opls_140-22    H    0.39700007    0.95069998    0.25170054    0.15330000
opls_140-23    H    0.04929984    0.44629987    0.25170054    0.15330000
opls_526-24    H    0.32309986    0.58109990    0.50000000    0.10230000
opls_526-25    H    0.41889994    0.74199986    0.50000000    0.10230000
opls_526-26    H    0.25800008    0.67689998    0.50000000    0.10230000
opls_526-27    H    0.67690001    0.41889984    0.50000000    0.10230000
opls_526-28    H    0.58109993    0.25799988    0.50000000    0.10230000
opls_526-29    H    0.74199992    0.32310002    0.50000000    0.10230000
opls_146-30    H    0.35540000    0.54730007    0.50000000    0.06410000
opls_146-31    H    0.45269989    0.80809991    0.50000000    0.06410000
opls_146-32    H    0.19190011    0.64460002    0.50000000    0.06410000
opls_146-33    H    0.64460000    0.45269993    0.50000000    0.06410000
opls_146-34    H    0.54730011    0.19190009    0.50000000    0.06410000
opls_146-35    H    0.80809989    0.35539998    0.50000000    0.06410000
opls_146-36    H    0.41099994    0.47549995    0.50000000    0.10930000
opls_146-37    H    0.52450006    0.93549997    0.50000000    0.10930000
opls_146-38    H    0.06450000    0.58900009    0.50000000    0.10930000
opls_146-39    H    0.58900006    0.52450005    0.50000000    0.10930000
opls_146-40    H    0.47549994    0.06450003    0.50000000    0.10930000
opls_146-41    H    0.93550000    0.41099991    0.50000000    0.10930000
opls_526-42    H    0.58110009    0.32310002    0.50000000    0.10230000
opls_526-43    H    0.67689995    0.25799988    0.50000000    0.10230000
opls_526-44    H    0.74199983    0.41889984    0.50000000    0.10230000
opls_526-45    H    0.41889991    0.67689998    0.50000000    0.10230000
opls_526-46    H    0.32309992    0.74199986    0.50000000    0.10230000
opls_526-47    H    0.25800004    0.58109990    0.50000000    0.10230000
opls_146-48    H    0.54730009    0.35539998    0.50000000    0.06410000
opls_146-49    H    0.64459998    0.19190009    0.50000000    0.06410000
opls_146-50    H    0.80809993    0.45269993    0.50000000    0.06410000
opls_146-51    H    0.45269991    0.64460002    0.50000000    0.06410000
opls_146-52    H    0.35540002    0.80809991    0.50000000    0.06410000
opls_146-53    H    0.19190007    0.54730007    0.50000000    0.06410000
opls_146-54    H    0.47549991    0.41099991    0.50000000    0.10930000
opls_146-55    H    0.58900010    0.06450003    0.50000000    0.10930000
opls_146-56    H    0.93549999    0.52450005    0.50000000    0.10930000
opls_146-57    H    0.52450009    0.58900009    0.50000000    0.10930000
opls_146-58    H    0.41099990    0.93549997    0.50000000    0.10930000
opls_146-59    H    0.06450001    0.47549995    0.50000000    0.10930000
opls_140-60    H    0.59360002    0.62130005    0.50000000    0.11360000
opls_140-61    H    0.37870002    0.97230005    0.50000000    0.11360000
opls_140-62    H    0.02769996    0.40639990    0.50000000    0.11360000
opls_140-63    H    0.40639998    0.37869995    0.50000000    0.11360000
opls_140-64    H    0.62129998    0.02769995    0.50000000    0.11360000
opls_140-65    H    0.97229991    0.59359984    0.50000000    0.11360000
opls_167-66    O    0.41029997    0.53810005    0.50000000    -0.34240000
opls_167-67    O    0.46189999    0.87219988    0.50000000    -0.34240000
opls_167-68    O    0.12780003    0.58970008    0.50000000    -0.34240000
opls_167-69    O    0.58970003    0.46189995    0.50000000    -0.34240000
opls_167-70    O    0.53809988    0.12779986    0.50000000    -0.34240000
opls_167-71    O    0.87219997    0.41029992    0.50000000    -0.34240000
opls_167-72    O    0.53809996    0.41029992    0.50000000    -0.34240000
opls_167-73    O    0.58969999    0.12779986    0.50000000    -0.34240000
opls_167-74    O    0.87219993    0.46189995    0.50000000    -0.34240000
opls_167-75    O    0.46190004    0.58970008    0.50000000    -0.34240000
opls_167-76    O    0.41029988    0.87219988    0.50000000    -0.34240000
opls_167-77    O    0.12780007    0.53810005    0.50000000    -0.34240000
opls_166-78    C    0.43710007    0.53100000    0.50000000    0.16630000
opls_166-79    C    0.46899992    0.90609985    0.50000000    0.16620000
opls_166-80    C    0.09389988    0.56289989    0.50000000    0.16620000
opls_166-81    C    0.56289993    0.46900000    0.50000000    0.16620000
opls_166-82    C    0.53099995    0.09389989    0.50000000    0.16620000
opls_166-83    C    0.90609999    0.43709985    0.50000000    0.16620000
opls_700-84    C    0.46749982    0.49979984    0.50000000    0.03200000
opls_700-85    C    0.50020010    0.96770004    0.50000000    0.03200000
opls_700-86    C    0.03229995    0.53249987    0.50000000    0.03200000
opls_700-87    C    0.53250005    0.50019990    0.50000000    0.03200000
opls_700-88    C    0.49979990    0.03229996    0.50000000    0.03200000
opls_700-89    C    0.96769992    0.46749987    0.50000000    0.03200000
opls_145-90    C    0.43550009    0.49989998    0.50000000    -0.19800000
opls_145-91    C    0.50010001    0.93559985    0.50000000    -0.19790000
opls_145-92    C    0.06440000    0.56449990    0.50000000    -0.19800000
opls_145-93    C    0.56449991    0.50010002    0.50000000    -0.19790000
opls_145-94    C    0.49989986    0.06439989    0.50000000    -0.19800000
opls_145-95    C    0.93560000    0.43550010    0.50000000    -0.19800000
opls_523-96    C    0.35139998    0.59439997    0.50000000    -0.12570000
opls_523-97    C    0.40560003    0.75699984    0.50000000    -0.12570000
opls_523-98    C    0.24299987    0.64859993    0.50000000    -0.12570000
opls_523-99    C    0.64860002    0.40560003    0.50000000    -0.12570000
opls_523-100    C    0.59439984    0.24299990    0.50000000    -0.12570000
opls_523-101    C    0.75700013    0.35140007    0.50000000    -0.12570000
opls_145-102    C    0.36920004    0.57579990    0.50000000    -0.06400000
opls_145-103    C    0.42419989    0.79339985    0.50000000    -0.06400000
opls_145-104    C    0.20659993    0.63079999    0.50000000    -0.06400000
opls_145-105    C    0.63079983    0.42419984    0.50000000    -0.06400000
opls_145-106    C    0.57579998    0.20659989    0.50000000    -0.06400000
opls_145-107    C    0.79340007    0.36920001    0.50000000    -0.06400000
opls_166-108    C    0.53099986    0.43709985    0.50000000    0.16620000
opls_166-109    C    0.56289994    0.09389989    0.50000000    0.16620000
opls_166-110    C    0.90610007    0.46900000    0.50000000    0.16620000
opls_166-111    C    0.46900001    0.56289989    0.50000000    0.16620000
opls_166-112    C    0.43709993    0.90609985    0.50000000    0.16620000
opls_166-113    C    0.09389993    0.53100000    0.50000000    0.16620000
opls_700-114    C    0.49979996    0.46749987    0.50000000    0.03200000
opls_700-115    C    0.53250006    0.03229996    0.50000000    0.03200000
opls_700-116    C    0.96769985    0.50019990    0.50000000    0.03200000
opls_700-117    C    0.50019991    0.53249987    0.50000000    0.03200000
opls_700-118    C    0.46749994    0.96770004    0.50000000    0.03200000
opls_700-119    C    0.03230002    0.49979984    0.50000000    0.03200000
opls_145-120    C    0.49990010    0.43550010    0.50000000    -0.19790000
opls_145-121    C    0.56450003    0.06439989    0.50000000    -0.19800000
opls_145-122    C    0.93560010    0.50010002    0.50000000    -0.19790000
opls_145-123    C    0.50009990    0.56449990    0.50000000    -0.19790000
opls_145-124    C    0.43549984    0.93559985    0.50000000    -0.19800000
opls_145-125    C    0.06439990    0.49989998    0.50000000    -0.19800000
opls_523-126    C    0.59439994    0.35140007    0.50000000    -0.12570000
opls_523-127    C    0.64860006    0.24299990    0.50000000    -0.12570000
opls_523-128    C    0.75700000    0.40560003    0.50000000    -0.12570000
opls_523-129    C    0.40560006    0.64859993    0.50000000    -0.12570000
opls_523-130    C    0.35139981    0.75699984    0.50000000    -0.12570000
opls_523-131    C    0.24300000    0.59439997    0.50000000    -0.12570000
opls_145-132    C    0.57579994    0.36920001    0.50000000    -0.06400000
opls_145-133    C    0.63079991    0.20659989    0.50000000    -0.06400000
opls_145-134    C    0.79340002    0.42419984    0.50000000    -0.06400000
opls_145-135    C    0.42420006    0.63079999    0.50000000    -0.06400000
opls_145-136    C    0.36919996    0.79339985    0.50000000    -0.06400000
opls_145-137    C    0.20659985    0.57579990    0.50000000    -0.06400000
opls_700-138    C    0.53134987    0.53134986    0.50000000    0.04990000
opls_700-139    C    0.46864989    0.00000000    0.50000000    0.04990000
opls_700-140    C    0.99999988    0.46864988    0.50000000    0.05000000
opls_700-141    C    0.46865000    0.46864988    0.50000000    0.04990000
opls_700-142    C    0.53135011    0.00000000    0.50000000    0.04990000
opls_700-143    C    0.99999999    0.53134986    0.50000000    0.04990000
opls_145-144    C    0.40580001    0.59419994    0.50000000    -0.25640000
opls_145-145    C    0.40579993    0.81159986    0.50000000    -0.25640000
opls_145-146    C    0.18839993    0.59419994    0.50000000    -0.25640000
opls_145-147    C    0.59419999    0.40580006    0.50000000    -0.25640000
opls_145-148    C    0.59419994    0.18839988    0.50000000    -0.25630000
opls_145-149    C    0.81160007    0.40580006    0.50000000    -0.25640000
opls_531-150    C    0.35035002    0.64965004    0.50000000    0.32870000
opls_531-151    C    0.35034996    0.70069991    0.50000000    0.32870000
opls_531-152    C    0.29930002    0.64965004    0.50000000    0.32870000
opls_531-153    C    0.64964998    0.35034996    0.50000000    0.32870000
opls_531-154    C    0.64965004    0.29930009    0.50000000    0.32870000
opls_531-155    C    0.70069998    0.35034996    0.50000000    0.32880000
opls_700-156    C    0.36944999    0.63055001    0.50000000    0.01210000
opls_700-157    C    0.36944999    0.73889998    0.50000000    0.01210000
opls_700-158    C    0.26110002    0.63055001    0.50000000    0.01210000
opls_700-159    C    0.63055001    0.36944999    0.50000000    0.01210000
opls_700-160    C    0.63055001    0.26110002    0.50000000    0.01210000
opls_700-161    C    0.73889998    0.36944999    0.50000000    0.01210000
opls_135-162    C    0.56649998    0.60069989    0.50000000    -0.40210000
opls_135-163    C    0.39930001    0.96579984    0.50000000    -0.40210000
opls_135-164    C    0.03420010    0.43350001    0.50000000    -0.40210000
opls_135-165    C    0.43349989    0.39929985    0.50000000    -0.40210000
opls_135-166    C    0.60069986    0.03419990    0.50000000    -0.40210000
opls_135-167    C    0.96579990    0.56649999    0.50000000    -0.40200000
opls_149-168    C    0.56450002    0.56449990    0.50000000    -0.13570000
opls_149-169    C    0.43550008    0.00000000    0.50000000    -0.13570000
opls_149-170    C    0.00000012    0.43550010    0.50000000    -0.13570000
opls_149-171    C    0.43549998    0.43550010    0.50000000    -0.13570000
opls_149-172    C    0.56449992    0.00000000    0.50000000    -0.13570000
opls_149-173    C    0.99999988    0.56449990    0.50000000    -0.13570000
opls_520-174    N    0.31569992    0.63139983    0.50000000    -0.41660000
opls_520-175    N    0.36859995    0.68429995    0.50000000    -0.41660000
opls_520-176    N    0.31570001    0.68429995    0.50000000    -0.41660000
opls_520-177    N    0.68429995    0.36859991    0.50000000    -0.41660000
opls_520-178    N    0.63140005    0.31570005    0.50000000    -0.41660000
opls_520-179    N    0.68429999    0.31570005    0.50000000    -0.41650000
MOF2_B_2-180    B    0.42570007    0.57430003    0.50000000    0.53890000
MOF2_B_2-181    B    0.42569997    0.85139994    0.50000000    0.53890000
MOF2_B_2-182    B    0.14859996    0.57430003    0.50000000    0.53890000
MOF2_B_2-183    B    0.57429993    0.42569997    0.50000000    0.53900000
MOF2_B_2-184    B    0.57430003    0.14860006    0.50000000    0.53890000
MOF2_B_2-185    B    0.85140004    0.42569997    0.50000000    0.53890000
