#======================================================================
# Crystal Data Generated By AuToFF
#----------------------------------------------------------------------

data_AuToFF_phase_1

_cell_length_a                         22.5700
_cell_length_b                         22.5700
_cell_length_c                         3.4700
_cell_angle_alpha                      90.00
_cell_angle_beta                       90.00
_cell_angle_gamma                      120.00
_symmetry_space_group_name_H-M_alt     'P 1'
_symmetry_space_group_IT_number        1

loop_
_space_group_symop_operation_xyz
   'x, y, z'

loop_
   _atom_site_label
   _atom_site_type_symbol
   _atom_site_fract_x
   _atom_site_fract_y
   _atom_site_fract_z
   _atom_site_charge
opls_702-0    H    0.35469000    0.01415979    0.14223055    0.10040000
opls_702-1    H    0.97892994    0.33925998    0.20327089    0.10040000
opls_702-2    H    0.66548019    0.61844022    0.70021902    0.10050000
opls_702-3    H    0.60978996    0.94237035    0.69059078    0.10040000
opls_702-4    H    0.06988977    0.66965992    0.69597118    0.10040000
opls_702-5    H    0.34124014    0.35150022    0.08240058    0.10040000
opls_702-6    H    0.57034005    0.89411031    0.14223055    0.10040000
opls_702-7    H    0.09899005    0.67496990    0.20327089    0.10040000
opls_702-8    H    0.32976984    0.40279001    0.70021902    0.10040000
opls_702-9    H    0.39414016    0.06243007    0.69059078    0.10040000
opls_702-10    H    0.94983986    0.33394999    0.69597118    0.10050000
opls_702-11    H    0.67694979    0.56714992    0.08240058    0.10040000
opls_146-12    H    0.62807007    0.07909981    0.00000000    0.04930000
opls_144-13    H    0.66048009    0.17517020    0.00000000    0.02920000
opls_910-14    H    0.51238978    0.15518983    0.00000000    0.28630000
opls_702-15    H    0.42769993    0.10349025    0.16717867    0.10040000
opls_146-16    H    0.92090010    0.54896990    0.00000000    0.04930000
opls_144-17    H    0.82482997    0.48530992    0.00000000    0.02910000
opls_910-18    H    0.84481004    0.35720005    0.00000000    0.28630000
opls_702-19    H    0.89114991    0.32323026    0.10076081    0.10040000
opls_146-20    H    0.45103027    0.37193028    0.00000000    0.04930000
opls_144-21    H    0.51468993    0.33951988    0.00000000    0.02910000
opls_910-22    H    0.64280018    0.48761012    0.00000000    0.28630000
opls_702-23    H    0.66113022    0.63789004    0.21738040    0.10040000
opls_146-24    H    0.37192993    0.92090019    0.00000000    0.04930000
opls_144-25    H    0.33952016    0.82483031    0.00000000    0.02910000
opls_910-26    H    0.48761022    0.84481017    0.00000000    0.28630000
opls_702-27    H    0.64335017    0.98344025    0.16717867    0.10040000
opls_146-28    H    0.07909990    0.45103010    0.00000000    0.04930000
opls_144-29    H    0.17517003    0.51469008    0.00000000    0.02910000
opls_910-30    H    0.15518996    0.64279995    0.00000000    0.28630000
opls_702-31    H    0.01120977    0.65892995    0.10076081    0.10040000
opls_146-32    H    0.54896998    0.62807023    0.00000000    0.04930000
opls_144-33    H    0.48531007    0.66048012    0.00000000    0.02910000
opls_910-34    H    0.35719982    0.51238988    0.00000000    0.28630000
opls_702-35    H    0.32543006    0.42223983    0.21738040    0.10040000
opls_281-36    O    0.75766990    0.28473989    0.00000000    -0.40310000
opls_281-37    O    0.71525987    0.47293002    0.00000000    -0.40310000
opls_281-38    O    0.52707023    0.24233009    0.00000000    -0.40310000
opls_281-39    O    0.24233010    0.71526011    0.00000000    -0.40310000
opls_281-40    O    0.28474013    0.52706998    0.00000000    -0.40300000
opls_281-41    O    0.47292977    0.75766991    0.00000000    -0.40300000
opls_238-42    N    0.55288008    0.14095023    0.00000000    -0.19820000
opls_238-43    N    0.85905002    0.41192990    0.00000000    -0.19830000
opls_238-44    N    0.58806991    0.44711987    0.00000000    -0.19830000
opls_238-45    N    0.44712018    0.85905028    0.00000000    -0.19830000
opls_238-46    N    0.14094998    0.58807010    0.00000000    -0.19830000
opls_238-47    N    0.41193009    0.55288013    0.00000000    -0.19830000
opls_280-48    C    0.71611987    0.30749982    0.00000000    0.18630000
opls_700-49    C    0.64138012    0.25950991    0.00000000    -0.10490000
opls_142-50    C    0.61889009    0.18978993    0.00000000    0.05880000
opls_916-51    C    0.52652975    0.07195980    0.00000000    0.21660000
opls_145-52    C    0.57020016    0.04388016    0.00000000    -0.15180000
opls_700-53    C    0.45438004    0.02665021    0.00000000    0.09630000
opls_148-54    C    0.40463977    0.05333981    0.00000000    -0.36570000
opls_280-55    C    0.69250022    0.40862030    0.00000000    0.18630000
opls_700-56    C    0.74049007    0.38186982    0.00000000    -0.10490000
opls_142-57    C    0.81021017    0.42909999    0.00000000    0.05880000
opls_916-58    C    0.92803994    0.45456992    0.00000000    0.21640000
opls_145-59    C    0.95612011    0.52631996    0.00000000    -0.15170000
opls_700-60    C    0.97335011    0.42772991    0.00000000    0.09620000
opls_148-61    C    0.94666028    0.35130018    0.00000000    -0.36570000
opls_280-62    C    0.59137990    0.28387988    0.00000000    0.18620000
opls_700-63    C    0.61813025    0.35862027    0.00000000    -0.10490000
opls_142-64    C    0.57090019    0.38111008    0.00000000    0.05880000
opls_916-65    C    0.54543031    0.47347028    0.00000000    0.21650000
opls_145-66    C    0.47367973    0.42979987    0.00000000    -0.15180000
opls_700-67    C    0.57226985    0.54561989    0.00000000    0.09620000
opls_148-68    C    0.64869995    0.59536002    0.00000000    -0.36570000
opls_280-69    C    0.28388013    0.69250018    0.00000000    0.18620000
opls_700-70    C    0.35861988    0.74049009    0.00000000    -0.10490000
opls_142-71    C    0.38110991    0.81021007    0.00000000    0.05880000
opls_916-72    C    0.47347025    0.92804020    0.00000000    0.21650000
opls_145-73    C    0.42980009    0.95612035    0.00000000    -0.15180000
opls_700-74    C    0.54562021    0.97335031    0.00000000    0.09620000
opls_148-75    C    0.59536023    0.94666019    0.00000000    -0.36560000
opls_280-76    C    0.30750003    0.59138021    0.00000000    0.18620000
opls_700-77    C    0.25950993    0.61813018    0.00000000    -0.10490000
opls_142-78    C    0.18978983    0.57090001    0.00000000    0.05880000
opls_916-79    C    0.07196006    0.54543008    0.00000000    0.21640000
opls_145-80    C    0.04387989    0.47368004    0.00000000    -0.15180000
opls_700-81    C    0.02664989    0.57227009    0.00000000    0.09630000
opls_148-82    C    0.05333998    0.64870033    0.00000000    -0.36570000
opls_280-83    C    0.40862010    0.71612012    0.00000000    0.18630000
opls_700-84    C    0.38187000    0.64138024    0.00000000    -0.10490000
opls_142-85    C    0.42909981    0.61888992    0.00000000    0.05880000
opls_916-86    C    0.45456995    0.52653023    0.00000000    0.21640000
opls_145-87    C    0.52632027    0.57020013    0.00000000    -0.15170000
opls_700-88    C    0.42773015    0.45438011    0.00000000    0.09620000
opls_148-89    C    0.35130005    0.40463998    0.00000000    -0.36570000
