#======================================================================
# Crystal Data Generated By AuToFF
#----------------------------------------------------------------------

data_AuToFF_phase_1

_cell_length_a                         30.0680
_cell_length_b                         30.0680
_cell_length_c                         7.4780
_cell_angle_alpha                      90.00
_cell_angle_beta                       90.00
_cell_angle_gamma                      120.00
_symmetry_space_group_name_H-M_alt     'P 1'
_symmetry_space_group_IT_number        1

loop_
_space_group_symop_operation_xyz
   'x, y, z'

loop_
   _atom_site_label
   _atom_site_type_symbol
   _atom_site_fract_x
   _atom_site_fract_y
   _atom_site_fract_z
   _atom_site_charge
opls_700-0    C    0.28858002    0.64683012    0.16307970    -0.03110000
opls_145-1    C    0.32186998    0.62690013    0.15238032    -0.07250000
opls_700-2    C    0.37501006    0.65978997    0.13847954    -0.03100000
opls_145-3    C    0.39479013    0.71318009    0.13403049    -0.07270000
opls_700-4    C    0.36211993    0.73381017    0.14407997    -0.03110000
opls_145-5    C    0.30900002    0.70036003    0.15843942    -0.05580000
opls_141-6    C    0.40949993    0.63838992    0.12196978    0.51790000
opls_141-7    C    0.38347006    0.78996991    0.13177989    0.52050000
opls_141-8    C    0.23262013    0.61178011    0.17135999    0.51780000
opls_700-9    C    0.53094011    0.95994992    0.99972051    -0.04060000
opls_145-10    C    0.58406996    0.98625020    0.97788981    -0.09760000
opls_145-11    C    0.61058007    0.03856004    0.93807970    -0.08280000
opls_700-12    C    0.58470021    0.06601010    0.92035972    -0.03540000
opls_142-13    C    0.50656014    0.90442998    0.03956004    0.02970000
opls_181-14    C    0.47169992    0.06300008    0.06972051    -0.15330000
opls_166-15    C    0.50331006    0.98638000    0.97790051    0.22610000
opls_166-16    C    0.53080986    0.04062996    0.94479941    0.18790000
opls_181-17    C    0.42198004    0.96511013    0.85571008    -0.15330000
opls_166-18    C    0.51397000    0.49168019    0.96935009    0.18940000
opls_166-19    C    0.48667988    0.51856995    0.00062049    0.22880000
opls_700-20    C    0.43260006    0.49019015    0.01945039    -0.04060000
opls_142-21    C    0.40098998    0.51407987    0.05627039    0.02970000
opls_145-22    C    0.43272981    0.41093986    0.95914014    -0.06810000
opls_145-23    C    0.40636000    0.43686993    0.99727066    -0.08200000
opls_145-24    C    0.62427987    0.32783006    0.83255951    -0.05580000
opls_700-25    C    0.64438990    0.29456003    0.82774940    -0.03110000
opls_145-26    C    0.69760004    0.31519010    0.84112062    -0.07250000
opls_700-27    C    0.73058992    0.36845004    0.85891950    -0.03230000
opls_145-28    C    0.70984007    0.40112021    0.86382990    -0.07180000
opls_700-29    C    0.65673998    0.38115989    0.84989971    -0.02740000
opls_141-30    C    0.60980988    0.23833001    0.81926050    0.51670000
opls_141-31    C    0.78627995    0.38978020    0.88037978    0.51210000
opls_141-32    C    0.63509017    0.41560006    0.86110992    0.51660000
opls_142-33    C    0.51038993    0.40630999    0.90809976    -0.03450000
opls_700-34    C    0.48604988    0.43759997    0.94393020    -0.03620000
opls_142-35    C    0.61670016    0.12169019    0.88479005    0.02970000
opls_142-36    C    0.89735999    0.50794999    0.03602033    -0.03450000
opls_145-37    C    0.02997019    0.60976012    0.16282963    -0.09700000
opls_145-38    C    0.97722992    0.58268986    0.13320941    -0.08190000
opls_700-39    C    0.95259994    0.53154017    0.07594945    -0.04280000
opls_181-40    C    0.92986988    0.41816998    0.11389008    -0.15330000
opls_166-41    C    0.03537020    0.53411010    0.08196042    0.35110000
opls_166-42    C    0.98158003    0.50640005    0.05272934    0.35110000
opls_181-43    C    0.05092019    0.46547016    0.13845948    -0.15330000
opls_142-44    C    0.11529982    0.61869994    0.16288981    -0.03450000
opls_700-45    C    0.05945013    0.58634006    0.13581038    -0.03880000
opls_181-46    C    0.54595003    0.60073004    0.88023937    -0.15330000
opls_181-47    C    0.59486002    0.55210996    0.09571008    -0.15330000
opls_700-48    C    0.28858002    0.64683012    0.66307970    -0.03110000
opls_145-49    C    0.32186998    0.62690013    0.65238032    -0.07250000
opls_700-50    C    0.37501006    0.65978997    0.63847954    -0.03100000
opls_145-51    C    0.39479013    0.71318009    0.63403049    -0.07270000
opls_700-52    C    0.36211993    0.73381017    0.64407997    -0.03110000
opls_145-53    C    0.30900002    0.70036003    0.65843942    -0.05580000
opls_141-54    C    0.40949993    0.63838992    0.62196978    0.51780000
opls_141-55    C    0.38347006    0.78996991    0.63177989    0.52050000
opls_141-56    C    0.23262013    0.61178011    0.67135999    0.51780000
opls_700-57    C    0.53094011    0.95994992    0.49972051    -0.04060000
opls_145-58    C    0.58406996    0.98625020    0.47788981    -0.09770000
opls_145-59    C    0.61058007    0.03856004    0.43809040    -0.08280000
opls_700-60    C    0.58470021    0.06601010    0.42037042    -0.03540000
opls_142-61    C    0.50656014    0.90442998    0.53956004    0.02970000
opls_181-62    C    0.47169992    0.06300008    0.56972051    -0.15330000
opls_166-63    C    0.50331006    0.98638000    0.47790051    0.22600000
opls_166-64    C    0.53080986    0.04062996    0.44481011    0.18790000
opls_181-65    C    0.42198004    0.96511013    0.35571008    -0.15330000
opls_166-66    C    0.51397000    0.49168019    0.46935009    0.18940000
opls_166-67    C    0.48667988    0.51856995    0.50062049    0.22880000
opls_700-68    C    0.43260006    0.49019015    0.51945039    -0.04060000
opls_142-69    C    0.40098998    0.51407987    0.55627039    0.02970000
opls_145-70    C    0.43272981    0.41093986    0.45914014    -0.06810000
opls_145-71    C    0.40636000    0.43686993    0.49727066    -0.08190000
opls_145-72    C    0.62427987    0.32783006    0.33255951    -0.05580000
opls_700-73    C    0.64438990    0.29456003    0.32776010    -0.03110000
opls_145-74    C    0.69760004    0.31519010    0.34112062    -0.07250000
opls_700-75    C    0.73058992    0.36845004    0.35891950    -0.03230000
opls_145-76    C    0.70984007    0.40112021    0.36382990    -0.07180000
opls_700-77    C    0.65673998    0.38115989    0.34989971    -0.02740000
opls_141-78    C    0.60980988    0.23833001    0.31926050    0.51670000
opls_141-79    C    0.78627995    0.38978020    0.38037978    0.51220000
opls_141-80    C    0.63509017    0.41560006    0.36110992    0.51670000
opls_142-81    C    0.51038993    0.40630999    0.40809976    -0.03450000
opls_700-82    C    0.48604988    0.43759997    0.44393020    -0.03620000
opls_142-83    C    0.61670016    0.12169019    0.38479005    0.02970000
opls_142-84    C    0.89735999    0.50794999    0.53602033    -0.03450000
opls_145-85    C    0.02997019    0.60976012    0.66282963    -0.09700000
opls_145-86    C    0.97722992    0.58268986    0.63320941    -0.08190000
opls_700-87    C    0.95259994    0.53154017    0.57594945    -0.04280000
opls_181-88    C    0.92986988    0.41816998    0.61389008    -0.15330000
opls_166-89    C    0.03537020    0.53411010    0.58196042    0.35110000
opls_166-90    C    0.98158003    0.50640005    0.55272934    0.35110000
opls_181-91    C    0.05092019    0.46547016    0.63845948    -0.15330000
opls_142-92    C    0.11529982    0.61869994    0.66288981    -0.03450000
opls_700-93    C    0.05945013    0.58634006    0.63581038    -0.03880000
opls_181-94    C    0.54595003    0.60073004    0.38023937    -0.15330000
opls_181-95    C    0.59486002    0.55210996    0.59571008    -0.15330000
opls_750-96    N    0.43723019    0.82306022    0.10207943    -0.20530000
opls_750-97    N    0.19860981    0.63208991    0.17648034    -0.20380000
opls_750-98    N    0.38864002    0.58396023    0.10719979    -0.20530000
opls_750-99    N    0.42050980    0.56323991    0.07504948    -0.13650000
opls_750-100    N    0.45787991    0.87570993    0.06826959    -0.13690000
opls_750-101    N    0.81800022    0.44200018    0.93679059    -0.20450000
opls_750-102    N    0.58071012    0.39448994    0.86659000    -0.20420000
opls_750-103    N    0.63010022    0.20446012    0.83715967    -0.20520000
opls_750-104    N    0.59760987    0.15157001    0.86449051    -0.13570000
opls_750-105    N    0.87039001    0.46219016    0.97018053    -0.12940000
opls_750-106    N    0.55957996    0.42610020    0.89725996    -0.12820000
opls_750-107    N    0.14596011    0.60025000    0.15554025    -0.09410000
opls_750-108    N    0.43723019    0.82306022    0.60207943    -0.20530000
opls_750-109    N    0.19860981    0.63208991    0.67648034    -0.20390000
opls_750-110    N    0.38864002    0.58396023    0.60719979    -0.20520000
opls_750-111    N    0.42050980    0.56323991    0.57504948    -0.13650000
opls_750-112    N    0.45787991    0.87570993    0.56826959    -0.13700000
opls_750-113    N    0.81800022    0.44200018    0.43679059    -0.20460000
opls_750-114    N    0.58071012    0.39448994    0.36659000    -0.20420000
opls_750-115    N    0.63010022    0.20446012    0.33715967    -0.20530000
opls_750-116    N    0.59760987    0.15157001    0.36449051    -0.13570000
opls_750-117    N    0.87039001    0.46219016    0.47018053    -0.12930000
opls_750-118    N    0.55957996    0.42610020    0.39725996    -0.12820000
opls_750-119    N    0.14596011    0.60025000    0.65554025    -0.09410000
opls_272-120    O    0.35531003    0.80824013    0.14341000    -0.28830000
opls_272-121    O    0.21508004    0.56519001    0.17060043    -0.27730000
opls_272-122    O    0.45593991    0.66711995    0.11748997    -0.29070000
opls_179-123    O    0.50605983    0.06961998    0.92874030    -0.13140000
opls_179-124    O    0.44970985    0.95843992    0.99671971    -0.13300000
opls_272-125    O    0.80524013    0.36262008    0.85462958    -0.28720000
opls_272-126    O    0.66353023    0.46220014    0.86953998    -0.31430000
opls_272-127    O    0.56361000    0.22050988    0.80232014    -0.28610000
opls_179-128    O    0.95902020    0.45637019    0.98389008    -0.14000000
opls_179-129    O    0.06570994    0.51190012    0.04340064    -0.13050000
opls_179-130    O    0.51190991    0.57228995    0.02129045    -0.13150000
opls_179-131    O    0.56770012    0.51727001    0.95481947    -0.13140000
opls_272-132    O    0.35531003    0.80824013    0.64341000    -0.28830000
opls_272-133    O    0.21508004    0.56519001    0.67060043    -0.27730000
opls_272-134    O    0.45593991    0.66711995    0.61748997    -0.29060000
opls_179-135    O    0.50605983    0.06961998    0.42874030    -0.13140000
opls_179-136    O    0.44970985    0.95843992    0.49671971    -0.13300000
opls_272-137    O    0.80524013    0.36262008    0.35462958    -0.28700000
opls_272-138    O    0.66353023    0.46220014    0.36953998    -0.31440000
opls_272-139    O    0.56361000    0.22050988    0.30232014    -0.28610000
opls_179-140    O    0.95902020    0.45637019    0.48389008    -0.14000000
opls_179-141    O    0.06570994    0.51190012    0.54340064    -0.13040000
opls_179-142    O    0.51190991    0.57228995    0.52129045    -0.13150000
opls_179-143    O    0.56770012    0.51727001    0.45481947    -0.13140000
opls_146-144    H    0.43796012    0.74035020    0.12211019    0.05360000
opls_185-145    H    0.45622986    0.02324993    0.13113934    0.07360000
opls_185-146    H    0.43842999    0.06688992    0.01491040    0.07360000
opls_185-147    H    0.39529986    0.92635999    0.79110056    0.07360000
opls_185-148    H    0.45004993    0.99231019    0.75138005    0.07360000
opls_146-149    H    0.73625011    0.44432010    0.87926050    0.05360000
opls_185-150    H    0.94623015    0.39141002    0.13010965    0.07360000
opls_185-151    H    0.88817001    0.39509018    0.06834047    0.07360000
opls_185-152    H    0.08580997    0.46836997    0.20958946    0.07360000
opls_185-153    H    0.03487022    0.43192017    0.04056967    0.07360000
opls_185-154    H    0.52323006    0.60467019    0.76537042    0.07370000
opls_185-155    H    0.56652003    0.57984996    0.83121958    0.07360000
opls_185-156    H    0.62364004    0.59106017    0.03705001    0.07360000
opls_185-157    H    0.61614001    0.53669999    0.17805028    0.07360000
opls_146-158    H    0.30573009    0.58359003    0.15495988    0.05360000
opls_146-159    H    0.60638981    0.96499991    0.99255951    0.05360000
opls_146-160    H    0.65402000    0.05950003    0.91953062    0.05360000
opls_144-161    H    0.53274996    0.88717014    0.04435945    0.03160000
opls_144-162    H    0.35772996    0.48742015    0.06809976    0.03160000
opls_146-163    H    0.41069989    0.36750993    0.94006018    0.05360000
opls_146-164    H    0.36276005    0.41404013    0.01039048    0.05360000
opls_146-165    H    0.58105987    0.31168007    0.82232950    0.05370000
opls_144-166    H    0.48408003    0.36319997    0.88976063    0.03160000
opls_144-167    H    0.66019988    0.14004989    0.87418026    0.03160000
opls_144-168    H    0.87846996    0.53190001    0.06571008    0.03160000
opls_146-169    H    0.04941994    0.65140008    0.20953062    0.05360000
opls_146-170    H    0.95346002    0.60216017    0.15558037    0.05360000
opls_144-171    H    0.13123998    0.66128001    0.19106980    0.03160000
opls_146-172    H    0.28185017    0.71646009    0.16650040    0.05360000
opls_146-173    H    0.71456991    0.28874006    0.83761032    0.05360000
opls_185-174    H    0.57543001    0.64051015    0.93087991    0.07360000
opls_185-175    H    0.56659019    0.55652015    0.18510029    0.07360000
opls_185-176    H    0.02024998    0.45899004    0.24123964    0.07360000
opls_185-177    H    0.49283993    0.09353006    0.17638941    0.07360000
opls_185-178    H    0.93186977    0.43741986    0.24732950    0.07360000
opls_185-179    H    0.39832015    0.98201013    0.91138941    0.07360000
opls_146-180    H    0.43796012    0.74035020    0.62211019    0.05360000
opls_185-181    H    0.45622986    0.02324993    0.63113934    0.07370000
opls_185-182    H    0.43842999    0.06688992    0.51491040    0.07360000
opls_185-183    H    0.39529986    0.92635999    0.29110992    0.07360000
opls_185-184    H    0.45004993    0.99231019    0.25138005    0.07360000
opls_146-185    H    0.73625011    0.44432010    0.37926986    0.05360000
opls_185-186    H    0.94623015    0.39141002    0.63010965    0.07360000
opls_185-187    H    0.88817001    0.39509018    0.56834047    0.07360000
opls_185-188    H    0.08580997    0.46836997    0.70958946    0.07360000
opls_185-189    H    0.03487022    0.43192017    0.54056967    0.07360000
opls_185-190    H    0.52323006    0.60467019    0.26537042    0.07360000
opls_185-191    H    0.56652003    0.57984996    0.33121958    0.07360000
opls_185-192    H    0.62364004    0.59106017    0.53705001    0.07360000
opls_185-193    H    0.61614001    0.53669999    0.67805028    0.07360000
opls_146-194    H    0.30573009    0.58359003    0.65495988    0.05360000
opls_146-195    H    0.60638981    0.96499991    0.49255951    0.05360000
opls_146-196    H    0.65402000    0.05950003    0.41953998    0.05360000
opls_144-197    H    0.53274996    0.88717014    0.54435945    0.03170000
opls_144-198    H    0.35772996    0.48742015    0.56809976    0.03160000
opls_146-199    H    0.41069989    0.36750993    0.44006018    0.05360000
opls_146-200    H    0.36276005    0.41404013    0.51039048    0.05360000
opls_146-201    H    0.58105987    0.31168007    0.32232950    0.05360000
opls_144-202    H    0.48408003    0.36319997    0.38976063    0.03160000
opls_144-203    H    0.66019988    0.14004989    0.37418026    0.03160000
opls_144-204    H    0.87846996    0.53190001    0.56571008    0.03160000
opls_146-205    H    0.04941994    0.65140008    0.70953062    0.05360000
opls_146-206    H    0.95346002    0.60216017    0.65558037    0.05370000
opls_144-207    H    0.13123998    0.66128001    0.69106980    0.03160000
opls_146-208    H    0.28185017    0.71646009    0.66650040    0.05360000
opls_146-209    H    0.71456991    0.28874006    0.33761968    0.05360000
opls_185-210    H    0.57543001    0.64051015    0.43087991    0.07360000
opls_185-211    H    0.56659019    0.55652015    0.68510029    0.07360000
opls_185-212    H    0.02024998    0.45899004    0.74123964    0.07360000
opls_185-213    H    0.49283993    0.09353006    0.67638941    0.07360000
opls_185-214    H    0.93186977    0.43741986    0.74732950    0.07360000
opls_185-215    H    0.39832015    0.98201013    0.41140011    0.07360000
