#======================================================================
# Crystal Data Generated By AuToFF
#----------------------------------------------------------------------

data_AuToFF_phase_1

_cell_length_a                         34.4382
_cell_length_b                         25.0203
_cell_length_c                         3.5396
_cell_angle_alpha                      90.00
_cell_angle_beta                       90.04
_cell_angle_gamma                      90.00
_symmetry_space_group_name_H-M_alt     'P 1'
_symmetry_space_group_IT_number        1

loop_
_space_group_symop_operation_xyz
   'x, y, z'

loop_
   _atom_site_label
   _atom_site_type_symbol
   _atom_site_fract_x
   _atom_site_fract_y
   _atom_site_fract_z
   _atom_site_charge
opls_145-0    C    0.67374994    0.47232008    0.14712114    -0.10310000
opls_145-1    C    0.64010997    0.55493020    0.24673127    -0.07250000
opls_700-2    C    0.60573005    0.52823987    0.35409933    0.02640000
opls_700-3    C    0.57133999    0.55684984    0.44831902    0.00930000
opls_700-4    C    0.53566003    0.52841013    0.47386993    0.03180000
opls_700-5    C    0.53589002    0.35896012    0.54653916    0.02930000
opls_700-6    C    0.57127984    0.38719999    0.52005876    0.03680000
opls_145-7    C    0.60609008    0.64110982    0.57983953    -0.07890000
opls_145-8    C    0.57206984    0.72324992    0.68571873    -0.13520000
opls_145-9    C    0.53724006    0.69606999    0.63376935    -0.07250000
opls_700-10    C    0.39316996    0.30436006    0.34188891    0.08530000
opls_142-11    C    0.64366007    0.27568015    0.69872019    0.10200000
opls_145-12    C    0.71337005    0.27469015    0.71063962    0.24060000
opls_145-13    C    0.25287985    0.30571016    0.28812013    -0.10770000
opls_145-14    C    0.21640986    0.28127001    0.28776133    -0.12990000
opls_145-15    C    0.17377004    0.97232008    0.85394960    -0.10300000
opls_145-16    C    0.14013004    0.05493020    0.75407108    -0.07250000
opls_700-17    C    0.10574010    0.02823987    0.64644875    0.02600000
opls_700-18    C    0.07133996    0.05684984    0.55200870    0.00930000
opls_700-19    C    0.03565991    0.02841013    0.52629958    0.03190000
opls_700-20    C    0.03588000    0.85896012    0.45361058    0.02930000
opls_700-21    C    0.07127990    0.88720999    0.48022940    0.03680000
opls_145-22    C    0.10607986    0.14110982    0.42051079    -0.07900000
opls_145-23    C    0.07205008    0.22323993    0.31449881    -0.13760000
opls_145-24    C    0.03722987    0.19606000    0.36638038    -0.07250000
opls_700-25    C    0.89318994    0.80437005    0.65780879    0.08580000
opls_142-26    C    0.14364997    0.77569014    0.30155102    0.10200000
opls_145-27    C    0.21334999    0.77471014    0.28947904    0.23270000
opls_145-28    C    0.75290007    0.80573015    0.71178099    -0.10780000
opls_145-29    C    0.71642984    0.78128999    0.71225845    -0.12990000
opls_145-30    C    0.32625006    0.47232008    0.85287886    -0.10310000
opls_145-31    C    0.35989003    0.55493020    0.75326873    -0.07250000
opls_700-32    C    0.39426995    0.52823987    0.64590067    0.02640000
opls_700-33    C    0.42866001    0.55684984    0.55168098    0.00930000
opls_700-34    C    0.46433997    0.52841013    0.52613007    0.03180000
opls_700-35    C    0.46410998    0.35896012    0.45346084    0.02930000
opls_700-36    C    0.42871987    0.38719999    0.47994124    0.03680000
opls_145-37    C    0.39390992    0.64110982    0.42016047    -0.07900000
opls_145-38    C    0.42792987    0.72324992    0.31428127    -0.13520000
opls_145-39    C    0.46275994    0.69606999    0.36623065    -0.07250000
opls_700-40    C    0.60683004    0.30436006    0.65811109    0.08530000
opls_142-41    C    0.35633993    0.27568015    0.30127981    0.10200000
opls_145-42    C    0.28662995    0.27469015    0.28936038    0.24060000
opls_145-43    C    0.74711986    0.30571016    0.71187987    -0.10780000
opls_145-44    C    0.78358985    0.28127001    0.71223867    -0.12990000
opls_145-45    C    0.82622996    0.97232008    0.14605040    -0.10310000
opls_145-46    C    0.85986996    0.05493020    0.24592892    -0.07250000
opls_700-47    C    0.89425990    0.02823987    0.35355125    0.02600000
opls_700-48    C    0.92866004    0.05684984    0.44799130    0.00930000
opls_700-49    C    0.96434009    0.02841013    0.47370042    0.03190000
opls_700-50    C    0.96412000    0.85896012    0.54638942    0.02930000
opls_700-51    C    0.92872010    0.88720999    0.51977060    0.03680000
opls_145-52    C    0.89391985    0.14110982    0.57948921    -0.07900000
opls_145-53    C    0.92794992    0.22323993    0.68550119    -0.13760000
opls_145-54    C    0.96276984    0.19606000    0.63361962    -0.07250000
opls_700-55    C    0.10681006    0.80437005    0.34219121    0.08580000
opls_142-56    C    0.85635003    0.77569014    0.69844898    0.10200000
opls_145-57    C    0.78665001    0.77471014    0.71052096    0.23270000
opls_145-58    C    0.24709993    0.80573015    0.28821901    -0.10780000
opls_145-59    C    0.28356987    0.78128999    0.28773873    -0.12990000
opls_145-60    C    0.32625006    0.52767992    0.85287886    -0.10310000
opls_145-61    C    0.35989003    0.44506980    0.75326873    -0.07250000
opls_700-62    C    0.39426995    0.47176013    0.64590067    0.02640000
opls_700-63    C    0.42866001    0.44315016    0.55168098    0.00930000
opls_700-64    C    0.46433997    0.47158987    0.52613007    0.03180000
opls_700-65    C    0.46410998    0.64103988    0.45346084    0.02930000
opls_700-66    C    0.42871987    0.61280001    0.47994124    0.03680000
opls_145-67    C    0.39390992    0.35889018    0.42016047    -0.07900000
opls_145-68    C    0.42792987    0.27675008    0.31428127    -0.13520000
opls_145-69    C    0.46275994    0.30393001    0.36623065    -0.07250000
opls_700-70    C    0.60683004    0.69563994    0.65811109    0.08530000
opls_142-71    C    0.35633993    0.72431985    0.30127981    0.10200000
opls_145-72    C    0.28662995    0.72530985    0.28936038    0.24070000
opls_145-73    C    0.74711986    0.69428984    0.71187987    -0.10780000
opls_145-74    C    0.78358985    0.71872999    0.71223867    -0.12990000
opls_145-75    C    0.82622996    0.02767992    0.14605040    -0.10310000
opls_145-76    C    0.85986996    0.94506980    0.24592892    -0.07250000
opls_700-77    C    0.89425990    0.97176013    0.35355125    0.02600000
opls_700-78    C    0.92866004    0.94315016    0.44799130    0.00930000
opls_700-79    C    0.96434009    0.97158987    0.47370042    0.03190000
opls_700-80    C    0.96412000    0.14103988    0.54638942    0.02930000
opls_700-81    C    0.92872010    0.11279001    0.51977060    0.03680000
opls_145-82    C    0.89391985    0.85889018    0.57948921    -0.07890000
opls_145-83    C    0.92794992    0.77676007    0.68550119    -0.13760000
opls_145-84    C    0.96276984    0.80394000    0.63361962    -0.07240000
opls_700-85    C    0.10681006    0.19562995    0.34219121    0.08580000
opls_142-86    C    0.85635003    0.22430986    0.69844898    0.10200000
opls_145-87    C    0.78665001    0.22528986    0.71052096    0.23270000
opls_145-88    C    0.24709993    0.19426985    0.28821901    -0.10780000
opls_145-89    C    0.28356987    0.21871001    0.28773873    -0.12990000
opls_145-90    C    0.67374994    0.52767992    0.14712114    -0.10310000
opls_145-91    C    0.64010997    0.44506980    0.24673127    -0.07250000
opls_700-92    C    0.60573005    0.47176013    0.35409933    0.02640000
opls_700-93    C    0.57133999    0.44315016    0.44831902    0.00930000
opls_700-94    C    0.53566003    0.47158987    0.47386993    0.03180000
opls_700-95    C    0.53589002    0.64103988    0.54653916    0.02930000
opls_700-96    C    0.57127984    0.61280001    0.52005876    0.03680000
opls_145-97    C    0.60609008    0.35889018    0.57983953    -0.07900000
opls_145-98    C    0.57206984    0.27675008    0.68571873    -0.13520000
opls_145-99    C    0.53724006    0.30393001    0.63376935    -0.07250000
opls_700-100    C    0.39316996    0.69563994    0.34188891    0.08530000
opls_142-101    C    0.64366007    0.72431985    0.69872019    0.10210000
opls_145-102    C    0.71337005    0.72530985    0.71063962    0.24080000
opls_145-103    C    0.25287985    0.69428984    0.28812013    -0.10780000
opls_145-104    C    0.21640986    0.71872999    0.28776133    -0.12990000
opls_145-105    C    0.17377004    0.02767992    0.85394960    -0.10300000
opls_145-106    C    0.14013004    0.94506980    0.75407108    -0.07250000
opls_700-107    C    0.10574010    0.97176013    0.64644875    0.02600000
opls_700-108    C    0.07133996    0.94315016    0.55200870    0.00930000
opls_700-109    C    0.03565991    0.97158987    0.52629958    0.03190000
opls_700-110    C    0.03588000    0.14103988    0.45361058    0.02930000
opls_700-111    C    0.07127990    0.11279001    0.48022940    0.03680000
opls_145-112    C    0.10607986    0.85889018    0.42051079    -0.07900000
opls_145-113    C    0.07205008    0.77676007    0.31449881    -0.13760000
opls_145-114    C    0.03722987    0.80394000    0.36638038    -0.07240000
opls_700-115    C    0.89318994    0.19562995    0.65780879    0.08580000
opls_142-116    C    0.14364997    0.22430986    0.30155102    0.10200000
opls_145-117    C    0.21334999    0.22528986    0.28947904    0.23270000
opls_145-118    C    0.75290007    0.19426985    0.71178099    -0.10780000
opls_145-119    C    0.71642984    0.21871001    0.71225845    -0.12990000
opls_700-120    C    0.49999985    0.55681986    0.50000000    0.03190000
opls_700-121    C    0.49999985    0.38628993    0.50000000    0.03180000
opls_700-122    C    0.49999985    0.44318014    0.50000000    0.03180000
opls_700-123    C    0.49999985    0.61371007    0.50000000    0.03180000
opls_700-124    C    0.99999985    0.05681986    0.50000000    0.03180000
opls_700-125    C    0.99999985    0.88628993    0.50000000    0.03180000
opls_700-126    C    0.99999985    0.94318014    0.50000000    0.03180000
opls_700-127    C    0.99999985    0.11371007    0.50000000    0.03180000
opls_750-128    N    0.67652009    0.30092005    0.68958922    -0.27480000
opls_750-129    N    0.17650012    0.80094004    0.31061984    -0.27480000
opls_750-130    N    0.32347991    0.30092005    0.31041078    -0.27480000
opls_750-131    N    0.82349988    0.80094004    0.68938016    -0.27470000
opls_750-132    N    0.32347991    0.69907995    0.31041078    -0.27480000
opls_750-133    N    0.82349988    0.19905996    0.68938016    -0.27480000
opls_750-134    N    0.67652009    0.69907995    0.68958922    -0.27470000
opls_750-135    N    0.17650012    0.19905996    0.31061984    -0.27470000
opls_146-136    H    0.70099996    0.44911012    0.06643971    0.05090000
opls_146-137    H    0.64094986    0.60047002    0.23954119    0.05090000
opls_146-138    H    0.63514001    0.61936987    0.56495084    0.05090000
opls_146-139    H    0.57185998    0.76788008    0.75044073    0.05090000
opls_146-140    H    0.50847000    0.71825997    0.66134026    0.05090000
opls_144-141    H    0.64314984    0.23048005    0.73884902    0.03000000
opls_146-142    H    0.25521006    0.35116006    0.28739971    0.05090000
opls_146-143    H    0.18898003    0.30677010    0.28606057    0.05090000
opls_146-144    H    0.20118988    0.94954017    0.93537970    0.05090000
opls_146-145    H    0.14096998    0.10047002    0.76123008    0.05100000
opls_146-146    H    0.13512996    0.11937986    0.43550119    0.05090000
opls_146-147    H    0.07182989    0.26787009    0.24977964    0.05090000
opls_146-148    H    0.00846004    0.21824998    0.33873884    0.05090000
opls_144-149    H    0.14314011    0.73049004    0.26145892    0.03000000
opls_146-150    H    0.75523008    0.85118004    0.71241948    0.05090000
opls_146-151    H    0.68899994    0.80679009    0.71397051    0.05090000
opls_146-152    H    0.29900004    0.44911012    0.93356029    0.05090000
opls_146-153    H    0.35904985    0.60047002    0.76045881    0.05090000
opls_146-154    H    0.36485999    0.61936987    0.43504916    0.05090000
opls_146-155    H    0.42814002    0.76788008    0.24955927    0.05090000
opls_146-156    H    0.49153000    0.71825997    0.33865974    0.05090000
opls_144-157    H    0.35684987    0.23048005    0.26115098    0.03000000
opls_146-158    H    0.74478994    0.35116006    0.71260029    0.05100000
opls_146-159    H    0.81101997    0.30677010    0.71393943    0.05090000
opls_146-160    H    0.79881012    0.94954017    0.06462030    0.05090000
opls_146-161    H    0.85903002    0.10047002    0.23876992    0.05090000
opls_146-162    H    0.86487004    0.11937986    0.56449881    0.05090000
opls_146-163    H    0.92816982    0.26787009    0.75022036    0.05090000
opls_146-164    H    0.99153996    0.21824998    0.66126116    0.05100000
opls_144-165    H    0.85685989    0.73049004    0.73854108    0.03000000
opls_146-166    H    0.24476992    0.85118004    0.28758052    0.05090000
opls_146-167    H    0.31100006    0.80679009    0.28602949    0.05090000
opls_146-168    H    0.29900004    0.55088988    0.93356029    0.05090000
opls_146-169    H    0.35904985    0.39952998    0.76045881    0.05090000
opls_146-170    H    0.36485999    0.38063013    0.43504916    0.05090000
opls_146-171    H    0.42814002    0.23211992    0.24955927    0.05090000
opls_146-172    H    0.49153000    0.28174003    0.33865974    0.05090000
opls_144-173    H    0.35684987    0.76951995    0.26115098    0.03000000
opls_146-174    H    0.74478994    0.64883994    0.71260029    0.05090000
opls_146-175    H    0.81101997    0.69322990    0.71393943    0.05100000
opls_146-176    H    0.79881012    0.05045983    0.06462030    0.05090000
opls_146-177    H    0.85903002    0.89952998    0.23876992    0.05090000
opls_146-178    H    0.86487004    0.88062014    0.56449881    0.05090000
opls_146-179    H    0.92816982    0.73212991    0.75022036    0.05090000
opls_146-180    H    0.99153996    0.78175002    0.66126116    0.05090000
opls_144-181    H    0.85685989    0.26950996    0.73854108    0.03000000
opls_146-182    H    0.24476992    0.14881996    0.28758052    0.05090000
opls_146-183    H    0.31100006    0.19320991    0.28602949    0.05090000
opls_146-184    H    0.70099996    0.55088988    0.06643971    0.05090000
opls_146-185    H    0.64094986    0.39952998    0.23954119    0.05090000
opls_146-186    H    0.63514001    0.38063013    0.56495084    0.05090000
opls_146-187    H    0.57185998    0.23211992    0.75044073    0.05090000
opls_146-188    H    0.50847000    0.28174003    0.66134026    0.05100000
opls_144-189    H    0.64314984    0.76951995    0.73884902    0.03000000
opls_146-190    H    0.25521006    0.64883994    0.28739971    0.05090000
opls_146-191    H    0.18898003    0.69322990    0.28606057    0.05090000
opls_146-192    H    0.20118988    0.05045983    0.93537970    0.05090000
opls_146-193    H    0.14096998    0.89952998    0.76123008    0.05090000
opls_146-194    H    0.13512996    0.88062014    0.43550119    0.05090000
opls_146-195    H    0.07182989    0.73212991    0.24977964    0.05090000
opls_146-196    H    0.00846004    0.78175002    0.33873884    0.05090000
opls_144-197    H    0.14314011    0.26950996    0.26145892    0.03000000
opls_146-198    H    0.75523008    0.14881996    0.71241948    0.05090000
opls_146-199    H    0.68899994    0.19320991    0.71397051    0.05090000
