#======================================================================
# Crystal Data Generated By AuToFF
#----------------------------------------------------------------------

data_AuToFF_phase_1

_cell_length_a                         36.8970
_cell_length_b                         3.9001
_cell_length_c                         36.8970
_cell_angle_alpha                      90.00
_cell_angle_beta                       120.00
_cell_angle_gamma                      90.00
_symmetry_space_group_name_H-M_alt     'P 1'
_symmetry_space_group_IT_number        1

loop_
_space_group_symop_operation_xyz
   'x, y, z'

loop_
   _atom_site_label
   _atom_site_type_symbol
   _atom_site_fract_x
   _atom_site_fract_y
   _atom_site_fract_z
   _atom_site_charge
opls_700-0    C    0.64601003    0.74200918    0.35679986    0.07070000
opls_522-1    C    0.68967013    0.71938925    0.37598009    -0.19410000
opls_700-2    C    0.62486992    0.71384067    0.38226010    0.06880000
opls_523-3    C    0.58591000    0.54692957    0.36584012    -0.16620000
opls_700-4    C    0.56597019    0.50305890    0.38961011    -0.00640000
opls_521-5    C    0.58701014    0.62038922    0.43151005    0.18970000
opls_522-6    C    0.62545999    0.78859004    0.44793004    -0.15790000
opls_523-7    C    0.64404006    0.83884003    0.42346999    -0.11440000
opls_521-8    C    0.53203003    0.42218917    0.44230002    0.19070000
opls_700-9    C    0.51462006    0.40345889    0.47105002    -0.02490000
opls_166-10    C    0.47123005    0.42415066    0.45644986    0.23660000
opls_523-11    C    0.45724997    0.40256916    0.48562985    -0.24720000
opls_181-12    C    0.40238008    0.60599985    0.40048990    -0.19360000
opls_700-13    C    0.52572012    0.35036025    0.37363013    0.03190000
opls_522-14    C    0.51069998    0.29176944    0.40139996    -0.21480000
opls_700-15    C    0.49545985    0.29544883    0.32807991    0.07000000
opls_145-16    C    0.50543016    0.10504090    0.30186013    -0.10860000
opls_145-17    C    0.47639001    0.06551883    0.25933991    -0.08350000
opls_145-18    C    0.43640006    0.20573062    0.24259007    -0.08210000
opls_145-19    C    0.42545009    0.38612087    0.26836014    -0.08500000
opls_145-20    C    0.45476015    0.43248122    0.31071011    -0.12840000
opls_523-21    C    0.02739003    0.42035076    0.54300999    -0.27690000
opls_521-22    C    0.70915982    0.69834876    0.35159984    0.19280000
opls_700-23    C    0.75528000    0.64727058    0.37111994    0.03580000
opls_523-24    C    0.77872010    0.49645907    0.41098006    -0.17000000
opls_700-25    C    0.82244996    0.45623958    0.43049984    -0.00470000
opls_521-26    C    0.84262999    0.56414964    0.40840008    0.19170000
opls_522-27    C    0.81940001    0.70468962    0.36825987    -0.16280000
opls_523-28    C    0.77612998    0.74588087    0.34973997    -0.11740000
opls_521-29    C    0.90961001    0.41030999    0.46544004    0.19230000
opls_700-30    C    0.95612010    0.41452014    0.48402002    -0.07170000
opls_166-31    C    0.98393003    0.44366042    0.52761993    0.23640000
opls_181-32    C    0.99462995    0.63725033    0.59529996    -0.19430000
opls_700-33    C    0.84742999    0.32091998    0.47164995    0.03270000
opls_522-34    C    0.89052995    0.27846978    0.48716989    -0.20220000
opls_700-35    C    0.83213988    0.26515987    0.50192998    0.06920000
opls_145-36    C    0.79634980    0.06955975    0.49210984    -0.11480000
opls_145-37    C    0.78233002    0.03456065    0.52078004    -0.08350000
opls_145-38    C    0.80487005    0.18203892    0.56042986    -0.08570000
opls_145-39    C    0.84142002    0.36519064    0.57140009    -0.08350000
opls_145-40    C    0.85483991    0.40861004    0.54235999    -0.12840000
opls_521-41    C    0.64249004    0.74710905    0.28904003    0.19790000
opls_522-42    C    0.62259994    0.76441886    0.31299998    -0.20070000
opls_700-43    C    0.61778013    0.73019923    0.24239009    0.03590000
opls_523-44    C    0.63537009    0.57744930    0.22013010    -0.17170000
opls_700-45    C    0.61173989    0.52787108    0.17635995    -0.00330000
opls_521-46    C    0.56948006    0.63678880    0.15524004    0.18990000
opls_522-47    C    0.55247995    0.80179995    0.17686005    -0.17710000
opls_523-48    C    0.57639001    0.85186021    0.21987004    -0.11640000
opls_521-49    C    0.55895007    0.43487090    0.08967996    0.19200000
opls_700-50    C    0.52963005    0.40816902    0.04354013    -0.07170000
opls_166-51    C    0.54345000    0.42630958    0.01412010    0.23810000
opls_181-52    C    0.59865994    0.60546909    0.99996996    -0.19420000
opls_700-53    C    0.62804011    0.37706982    0.15225010    0.03770000
opls_522-54    C    0.60035005    0.31369965    0.10942006    -0.21730000
opls_700-55    C    0.67367003    0.32016102    0.16803010    0.06990000
opls_145-56    C    0.69961006    0.13384016    0.20471000    -0.11710000
opls_145-57    C    0.74208001    0.08787980    0.21831998    -0.08200000
opls_145-58    C    0.75912009    0.21968924    0.19494995    -0.08210000
opls_145-59    C    0.73371989    0.39841030    0.15797994    -0.08850000
opls_145-60    C    0.69137995    0.44972949    0.14467008    -0.12840000
opls_523-61    C    0.51364002    0.40508961    0.97107005    -0.26490000
opls_700-62    C    0.35398997    0.74200918    0.64320014    0.07070000
opls_522-63    C    0.31032987    0.71938925    0.62401991    -0.19410000
opls_700-64    C    0.37513008    0.71384067    0.61773990    0.06880000
opls_523-65    C    0.41409000    0.54692957    0.63415988    -0.16620000
opls_700-66    C    0.43403008    0.50305890    0.61038989    -0.00640000
opls_521-67    C    0.41298986    0.62038922    0.56848995    0.18960000
opls_522-68    C    0.37454001    0.78859004    0.55206996    -0.15790000
opls_523-69    C    0.35595994    0.83884003    0.57653001    -0.11440000
opls_521-70    C    0.46796997    0.42218917    0.55769998    0.19070000
opls_700-71    C    0.48537994    0.40345889    0.52894998    -0.02490000
opls_166-72    C    0.52876995    0.42415066    0.54355014    0.23660000
opls_523-73    C    0.54274987    0.40256916    0.51436984    -0.24720000
opls_181-74    C    0.59761992    0.60599985    0.59951010    -0.19360000
opls_700-75    C    0.47427988    0.35036025    0.62636987    0.03190000
opls_522-76    C    0.48930002    0.29176944    0.59860004    -0.21490000
opls_700-77    C    0.50454015    0.29544883    0.67192009    0.07000000
opls_145-78    C    0.49456984    0.10504090    0.69813987    -0.10860000
opls_145-79    C    0.52360999    0.06551883    0.74066009    -0.08350000
opls_145-80    C    0.56359994    0.20573062    0.75740993    -0.08210000
opls_145-81    C    0.57454991    0.38612087    0.73163986    -0.08510000
opls_145-82    C    0.54523985    0.43248122    0.68928989    -0.12840000
opls_523-83    C    0.97260997    0.42035076    0.45699001    -0.27680000
opls_521-84    C    0.29084003    0.69834876    0.64839984    0.19280000
opls_700-85    C    0.24472000    0.64727058    0.62888006    0.03580000
opls_523-86    C    0.22127990    0.49645907    0.58901994    -0.17000000
opls_700-87    C    0.17754988    0.45623958    0.56949985    -0.00470000
opls_521-88    C    0.15737001    0.56414964    0.59159992    0.19170000
opls_522-89    C    0.18059999    0.70468962    0.63174013    -0.16280000
opls_523-90    C    0.22387002    0.74588087    0.65026003    -0.11740000
opls_521-91    C    0.09038999    0.41030999    0.53455996    0.19230000
opls_700-92    C    0.04387990    0.41452014    0.51597998    -0.07160000
opls_166-93    C    0.01606997    0.44366042    0.47238007    0.23640000
opls_181-94    C    0.00537005    0.63725033    0.40470004    -0.19420000
opls_700-95    C    0.15257001    0.32091998    0.52835005    0.03270000
opls_522-96    C    0.10947005    0.27846978    0.51283011    -0.20220000
opls_700-97    C    0.16786012    0.26515987    0.49807002    0.06920000
opls_145-98    C    0.20365005    0.06955975    0.50788984    -0.11480000
opls_145-99    C    0.21766998    0.03456065    0.47921996    -0.08350000
opls_145-100    C    0.19512995    0.18203892    0.43957014    -0.08570000
opls_145-101    C    0.15857998    0.36519064    0.42859991    -0.08350000
opls_145-102    C    0.14516009    0.40861004    0.45764001    -0.12840000
opls_521-103    C    0.35750996    0.74710905    0.71095997    0.19790000
opls_522-104    C    0.37740006    0.76441886    0.68700002    -0.20070000
opls_700-105    C    0.38221987    0.73019923    0.75760991    0.03590000
opls_523-106    C    0.36462991    0.57744930    0.77986990    -0.17170000
opls_700-107    C    0.38826011    0.52787108    0.82364005    -0.00330000
opls_521-108    C    0.43051994    0.63678880    0.84475996    0.18990000
opls_522-109    C    0.44752005    0.80179995    0.82313995    -0.17710000
opls_523-110    C    0.42360999    0.85186021    0.78012996    -0.11640000
opls_521-111    C    0.44104993    0.43487090    0.91032004    0.19200000
opls_700-112    C    0.47036995    0.40816902    0.95645987    -0.07170000
opls_166-113    C    0.45655000    0.42630958    0.98587990    0.23810000
opls_181-114    C    0.40134006    0.60546909    0.00003004    -0.19410000
opls_700-115    C    0.37195989    0.37706982    0.84774990    0.03770000
opls_522-116    C    0.39964995    0.31369965    0.89057994    -0.21730000
opls_700-117    C    0.32632997    0.32016102    0.83196990    0.06990000
opls_145-118    C    0.30038994    0.13384016    0.79529000    -0.11700000
opls_145-119    C    0.25791999    0.08787980    0.78168002    -0.08190000
opls_145-120    C    0.24087991    0.21968924    0.80505005    -0.08210000
opls_145-121    C    0.26628011    0.39841030    0.84202006    -0.08850000
opls_145-122    C    0.30862005    0.44972949    0.85532992    -0.12840000
opls_523-123    C    0.48635998    0.40508961    0.02892995    -0.26480000
opls_520-124    N    0.56941992    0.58054922    0.45586995    -0.28620000
opls_520-125    N    0.68494999    0.71286890    0.30914003    -0.33220000
opls_520-126    N    0.88492014    0.54367068    0.42657010    -0.28940000
opls_520-127    N    0.54516987    0.59142073    0.11338986    -0.28370000
opls_520-128    N    0.43058008    0.58054922    0.54413005    -0.28620000
opls_520-129    N    0.31505001    0.71286890    0.69085997    -0.33220000
opls_520-130    N    0.11507986    0.54367068    0.57342990    -0.28940000
opls_520-131    N    0.45482997    0.59142073    0.88660983    -0.28370000
opls_179-132    O    0.44357997    0.48446963    0.41344988    -0.19360000
opls_179-133    O    0.96730987    0.51218943    0.55402998    -0.20120000
opls_179-134    O    0.58634007    0.48474911    0.02873998    -0.19610000
opls_179-135    O    0.55642003    0.48446963    0.58655012    -0.19360000
opls_179-136    O    0.03269013    0.51218943    0.44597002    -0.20120000
opls_179-137    O    0.41365993    0.48474911    0.97126002    -0.19610000
opls_525-138    H    0.70798002    0.70963052    0.40962998    0.10440000
opls_526-139    H    0.57181988    0.45009102    0.33455990    0.09200000
opls_525-140    H    0.64084995    0.88515935    0.47971004    0.11840000
opls_526-141    H    0.67327006    0.97845953    0.43689002    0.12340000
opls_526-142    H    0.42409990    0.39672060    0.47481985    0.11970000
opls_185-143    H    0.40365995    0.83392990    0.41904985    0.07480000
opls_185-144    H    0.38307002    0.40223071    0.40344010    0.07520000
opls_185-145    H    0.38719995    0.68116971    0.36706001    0.09070000
opls_525-146    H    0.48183008    0.15061921    0.39040000    0.12360000
opls_146-147    H    0.53536004    0.98426963    0.31391005    0.09790000
opls_146-148    H    0.48471988    0.92080972    0.23953002    0.12060000
opls_146-149    H    0.41381996    0.17229045    0.20973007    0.12020000
opls_146-150    H    0.39441982    0.49451040    0.25542988    0.12020000
opls_146-151    H    0.44581991    0.58043896    0.32984996    0.11570000
opls_526-152    H    0.04887007    0.41502013    0.57636008    0.11890000
opls_526-153    H    0.76243991    0.41300992    0.42650000    0.11260000
opls_525-154    H    0.83500994    0.78804902    0.35155008    0.11910000
opls_526-155    H    0.75907989    0.86114971    0.31895985    0.11590000
opls_185-156    H    0.01257982    0.86181124    0.59435985    0.07480000
opls_185-157    H    0.01626991    0.43318889    0.61540996    0.07480000
opls_185-158    H    0.97552982    0.71910977    0.60930990    0.07480000
opls_525-159    H    0.90903996    0.14945001    0.51682995    0.12530000
opls_146-160    H    0.77908991    0.94273993    0.46245009    0.10980000
opls_146-161    H    0.75433996    0.88762083    0.51244987    0.12100000
opls_146-162    H    0.79419010    0.15224994    0.58274994    0.12050000
opls_146-163    H    0.85894995    0.47953899    0.60215987    0.12320000
opls_146-164    H    0.88259010    0.56097023    0.55120997    0.11710000
opls_525-165    H    0.58901988    0.78349017    0.29778987    0.10370000
opls_526-166    H    0.66749982    0.49877952    0.23770989    0.10990000
opls_525-167    H    0.52049992    0.89394118    0.16019001    0.11780000
opls_526-168    H    0.56218005    0.98879003    0.23504009    0.12370000
opls_185-169    H    0.57996011    0.83315043    0.98280014    0.07500000
opls_185-170    H    0.59536003    0.40112048    0.97763986    0.07540000
opls_185-171    H    0.63210996    0.68083126    0.01777006    0.09070000
opls_525-172    H    0.61166005    0.17323915    0.09177987    0.12130000
opls_146-173    H    0.68743986    0.02210969    0.22298986    0.10980000
opls_146-174    H    0.76165001    0.94549114    0.24673012    0.12050000
opls_146-175    H    0.79194012    0.18133894    0.20533997    0.12060000
opls_146-176    H    0.74691988    0.50081024    0.13982995    0.12010000
opls_146-177    H    0.67250009    0.59512064    0.11628999    0.11700000
opls_526-178    H    0.52393990    0.39911028    0.94834001    0.11980000
opls_525-179    H    0.29201998    0.70963052    0.59037002    0.10440000
opls_526-180    H    0.42818012    0.45009102    0.66544010    0.09200000
opls_525-181    H    0.35915005    0.88515935    0.52028996    0.11840000
opls_526-182    H    0.32672994    0.97845953    0.56310998    0.12340000
opls_526-183    H    0.57589994    0.39672060    0.52517984    0.11970000
opls_185-184    H    0.59633989    0.83392990    0.58094984    0.07480000
opls_185-185    H    0.61692998    0.40223071    0.59655990    0.07520000
opls_185-186    H    0.61280005    0.68116971    0.63293999    0.09070000
opls_525-187    H    0.51816992    0.15061921    0.60960000    0.12360000
opls_146-188    H    0.46463996    0.98426963    0.68608995    0.09790000
opls_146-189    H    0.51528012    0.92080972    0.76046998    0.12060000
opls_146-190    H    0.58618004    0.17229045    0.79026993    0.12020000
opls_146-191    H    0.60558018    0.49451040    0.74457012    0.12030000
opls_146-192    H    0.55418009    0.58043896    0.67015004    0.11570000
opls_526-193    H    0.95112993    0.41502013    0.42363992    0.11890000
opls_526-194    H    0.23756009    0.41300992    0.57350000    0.11260000
opls_525-195    H    0.16499006    0.78804902    0.64844992    0.11910000
opls_526-196    H    0.24091995    0.86114971    0.68103984    0.11590000
opls_185-197    H    0.98742002    0.86181124    0.40563984    0.07480000
opls_185-198    H    0.98373009    0.43318889    0.38459004    0.07480000
opls_185-199    H    0.02447018    0.71910977    0.39069010    0.07480000
opls_525-200    H    0.09096004    0.14945001    0.48317005    0.12540000
opls_146-201    H    0.22091009    0.94273993    0.53754991    0.10980000
opls_146-202    H    0.24566004    0.88762083    0.48755013    0.12090000
opls_146-203    H    0.20580990    0.15224994    0.41725006    0.12050000
opls_146-204    H    0.14105005    0.47953899    0.39784013    0.12320000
opls_146-205    H    0.11740990    0.56097023    0.44879003    0.11700000
opls_525-206    H    0.41098012    0.78349017    0.70221013    0.10370000
opls_526-207    H    0.33250018    0.49877952    0.76229011    0.10980000
opls_525-208    H    0.47950008    0.89394118    0.83980999    0.11780000
opls_526-209    H    0.43781995    0.98879003    0.76495991    0.12370000
opls_185-210    H    0.42003989    0.83315043    0.01719986    0.07510000
opls_185-211    H    0.40463997    0.40112048    0.02236014    0.07540000
opls_185-212    H    0.36789004    0.68083126    0.98222994    0.09070000
opls_525-213    H    0.38833995    0.17323915    0.90822013    0.12130000
opls_146-214    H    0.31255999    0.02210969    0.77700983    0.10990000
opls_146-215    H    0.23834999    0.94549114    0.75326988    0.12050000
opls_146-216    H    0.20805988    0.18133894    0.79466003    0.12050000
opls_146-217    H    0.25308012    0.50081024    0.86017005    0.12010000
opls_146-218    H    0.32749991    0.59512064    0.88371001    0.11700000
opls_526-219    H    0.47606010    0.39911028    0.05165999    0.11980000
