#======================================================================
# Crystal Data Generated By AuToFF
#----------------------------------------------------------------------

data_AuToFF_phase_1

_cell_length_a                         32.7583
_cell_length_b                         35.0361
_cell_length_c                         3.7678
_cell_angle_alpha                      90.00
_cell_angle_beta                       90.00
_cell_angle_gamma                      90.00
_symmetry_space_group_name_H-M_alt     'P 1'
_symmetry_space_group_IT_number        1

loop_
_space_group_symop_operation_xyz
   'x, y, z'

loop_
   _atom_site_label
   _atom_site_type_symbol
   _atom_site_fract_x
   _atom_site_fract_y
   _atom_site_fract_z
   _atom_site_charge
opls_700-0    C    0.41283003    0.96483998    0.04911885    0.03390000
opls_145-1    C    0.65157014    0.92927010    0.89403100    -0.12420000
opls_145-2    C    0.67665996    0.89708986    0.90906895    -0.16080000
opls_145-3    C    0.66352985    0.86392007    0.08343065    0.18080000
opls_145-4    C    0.62525009    0.86395004    0.24989915    -0.16140000
opls_145-5    C    0.60075004    0.89657011    0.24455120    -0.11170000
opls_145-6    C    0.71418999    0.72626006    0.09723977    -0.16540000
opls_700-7    C    0.45598001    0.96493988    0.00678911    0.03260000
opls_145-8    C    0.47872997    0.06842999    0.94505016    -0.10540000
opls_700-9    C    0.11293993    0.57054010    0.05885132    0.07160000
opls_234-10    C    0.73270988    0.17126992    0.09886937    0.45350000
opls_700-11    C    0.74634001    0.21085994    0.09821116    -0.06980000
opls_700-12    C    0.71171001    0.23381997    0.09644089    -0.06980000
opls_234-13    C    0.67627014    0.20868989    0.09060990    0.47290000
opls_700-14    C    0.91283003    0.46483998    0.04911885    0.03390000
opls_145-15    C    0.15157014    0.42927010    0.89403100    -0.12420000
opls_145-16    C    0.17665996    0.39708986    0.90906895    -0.16080000
opls_145-17    C    0.16352985    0.36392007    0.08343065    0.18080000
opls_145-18    C    0.12525009    0.36395004    0.24989915    -0.16140000
opls_145-19    C    0.10075004    0.39657011    0.24455120    -0.11170000
opls_145-20    C    0.21418999    0.22626006    0.09723977    -0.16540000
opls_700-21    C    0.95598001    0.46493988    0.00678911    0.03260000
opls_145-22    C    0.97872997    0.56842999    0.94505016    -0.10540000
opls_700-23    C    0.61293993    0.07054010    0.05885132    0.07160000
opls_234-24    C    0.23270988    0.67126992    0.09886937    0.45350000
opls_700-25    C    0.24634001    0.71085994    0.09821116    -0.06980000
opls_700-26    C    0.21171001    0.73381997    0.09644089    -0.06980000
opls_234-27    C    0.17627014    0.70868989    0.09060990    0.47290000
opls_700-28    C    0.58716997    0.03516002    0.04911885    0.03390000
opls_145-29    C    0.34842986    0.07072990    0.89403100    -0.12420000
opls_145-30    C    0.32334004    0.10291014    0.90906895    -0.16080000
opls_145-31    C    0.33647015    0.13607993    0.08343065    0.18080000
opls_145-32    C    0.37474991    0.13604996    0.24989915    -0.16140000
opls_145-33    C    0.39924996    0.10342989    0.24455120    -0.11170000
opls_145-34    C    0.28581001    0.27373994    0.09723977    -0.16540000
opls_700-35    C    0.54401999    0.03506012    0.00678911    0.03260000
opls_145-36    C    0.52127003    0.93157001    0.94505016    -0.10540000
opls_700-37    C    0.88706007    0.42945990    0.05885132    0.07160000
opls_234-38    C    0.26729012    0.82873008    0.09886937    0.45350000
opls_700-39    C    0.25365999    0.78914006    0.09821116    -0.06980000
opls_700-40    C    0.28828999    0.76618003    0.09644089    -0.06980000
opls_234-41    C    0.32372986    0.79131011    0.09060990    0.47290000
opls_700-42    C    0.08716997    0.53516002    0.04911885    0.03390000
opls_145-43    C    0.84842986    0.57072990    0.89403100    -0.12420000
opls_145-44    C    0.82334004    0.60291014    0.90906895    -0.16080000
opls_145-45    C    0.83647015    0.63607993    0.08343065    0.18080000
opls_145-46    C    0.87474991    0.63604996    0.24989915    -0.16140000
opls_145-47    C    0.89924996    0.60342989    0.24455120    -0.11170000
opls_145-48    C    0.78581001    0.77373994    0.09723977    -0.16540000
opls_700-49    C    0.04401999    0.53506012    0.00678911    0.03260000
opls_145-50    C    0.02127003    0.43157001    0.94505016    -0.10540000
opls_700-51    C    0.38706007    0.92945990    0.05885132    0.07160000
opls_234-52    C    0.76729012    0.32873008    0.09886937    0.45350000
opls_700-53    C    0.75365999    0.28914006    0.09821116    -0.06980000
opls_700-54    C    0.78828999    0.26618003    0.09644089    -0.06980000
opls_234-55    C    0.82372986    0.29131011    0.09060990    0.47290000
opls_700-56    C    0.41283003    0.03516002    0.04911885    0.03390000
opls_145-57    C    0.65157014    0.07072990    0.89403100    -0.12420000
opls_145-58    C    0.67665996    0.10291014    0.90906895    -0.16080000
opls_145-59    C    0.66352985    0.13607993    0.08343065    0.18080000
opls_145-60    C    0.62525009    0.13604996    0.24989915    -0.16140000
opls_145-61    C    0.60075004    0.10342989    0.24455120    -0.11170000
opls_145-62    C    0.71418999    0.27373994    0.09723977    -0.16540000
opls_700-63    C    0.45598001    0.03506012    0.00678911    0.03260000
opls_145-64    C    0.47872997    0.93157001    0.94505016    -0.10540000
opls_700-65    C    0.11293993    0.42945990    0.05885132    0.07160000
opls_234-66    C    0.73270988    0.82873008    0.09886937    0.45350000
opls_700-67    C    0.74634001    0.78914006    0.09821116    -0.06980000
opls_700-68    C    0.71171001    0.76618003    0.09644089    -0.06980000
opls_234-69    C    0.67627014    0.79131011    0.09060990    0.47290000
opls_700-70    C    0.91283003    0.53516002    0.04911885    0.03390000
opls_145-71    C    0.15157014    0.57072990    0.89403100    -0.12420000
opls_145-72    C    0.17665996    0.60291014    0.90906895    -0.16080000
opls_145-73    C    0.16352985    0.63607993    0.08343065    0.18080000
opls_145-74    C    0.12525009    0.63604996    0.24989915    -0.16140000
opls_145-75    C    0.10075004    0.60342989    0.24455120    -0.11170000
opls_145-76    C    0.21418999    0.77373994    0.09723977    -0.16540000
opls_700-77    C    0.95598001    0.53506012    0.00678911    0.03260000
opls_145-78    C    0.97872997    0.43157001    0.94505016    -0.10540000
opls_700-79    C    0.61293993    0.92945990    0.05885132    0.07160000
opls_234-80    C    0.23270988    0.32873008    0.09886937    0.45360000
opls_700-81    C    0.24634001    0.28914006    0.09821116    -0.06980000
opls_700-82    C    0.21171001    0.26618003    0.09644089    -0.06980000
opls_234-83    C    0.17627014    0.29131011    0.09060990    0.47290000
opls_700-84    C    0.58716997    0.96483998    0.04911885    0.03390000
opls_145-85    C    0.34842986    0.92927010    0.89403100    -0.12420000
opls_145-86    C    0.32334004    0.89708986    0.90906895    -0.16080000
opls_145-87    C    0.33647015    0.86392007    0.08343065    0.18090000
opls_145-88    C    0.37474991    0.86395004    0.24989915    -0.16140000
opls_145-89    C    0.39924996    0.89657011    0.24455120    -0.11170000
opls_145-90    C    0.28581001    0.72626006    0.09723977    -0.16530000
opls_700-91    C    0.54401999    0.96493988    0.00678911    0.03260000
opls_145-92    C    0.52127003    0.06842999    0.94505016    -0.10540000
opls_700-93    C    0.88706007    0.57054010    0.05885132    0.07160000
opls_234-94    C    0.26729012    0.17126992    0.09886937    0.45350000
opls_700-95    C    0.25365999    0.21085994    0.09821116    -0.06980000
opls_700-96    C    0.28828999    0.23381997    0.09644089    -0.06980000
opls_234-97    C    0.32372986    0.20868989    0.09060990    0.47290000
opls_700-98    C    0.08716997    0.46483998    0.04911885    0.03390000
opls_145-99    C    0.84842986    0.42927010    0.89403100    -0.12420000
opls_145-100    C    0.82334004    0.39708986    0.90906895    -0.16080000
opls_145-101    C    0.83647015    0.36392007    0.08343065    0.18080000
opls_145-102    C    0.87474991    0.36395004    0.24989915    -0.16140000
opls_145-103    C    0.89924996    0.39657011    0.24455120    -0.11170000
opls_145-104    C    0.78581001    0.22626006    0.09723977    -0.16540000
opls_700-105    C    0.04401999    0.46493988    0.00678911    0.03260000
opls_145-106    C    0.02127003    0.56842999    0.94505016    -0.10540000
opls_700-107    C    0.38706007    0.07054010    0.05885132    0.07160000
opls_234-108    C    0.76729012    0.67126992    0.09886937    0.45350000
opls_700-109    C    0.75365999    0.71085994    0.09821116    -0.06970000
opls_700-110    C    0.78828999    0.73381997    0.09644089    -0.06980000
opls_234-111    C    0.82372986    0.70868989    0.09060990    0.47300000
opls_145-112    C    0.39273009    0.00000000    0.08769043    -0.16760000
opls_700-113    C    0.47721005    0.00000000    0.01202028    -0.02700000
opls_145-114    C    0.89273009    0.50000000    0.08769043    -0.16770000
opls_700-115    C    0.97721005    0.50000000    0.01202028    -0.02700000
opls_145-116    C    0.60726991    0.00000000    0.08769043    -0.16770000
opls_700-117    C    0.52278995    0.00000000    0.01202028    -0.02700000
opls_145-118    C    0.10726991    0.50000000    0.08769043    -0.16770000
opls_700-119    C    0.02278995    0.50000000    0.01202028    -0.02700000
opls_146-120    H    0.46423013    0.09541987    0.89334890    0.11410000
opls_146-121    H    0.66212013    0.95381992    0.74535007    0.11930000
opls_146-122    H    0.70564010    0.89772007    0.77175009    0.12480000
opls_146-123    H    0.61494003    0.83932002    0.39785020    0.12480000
opls_146-124    H    0.57261000    0.89612999    0.39239079    0.10670000
opls_146-125    H    0.68724995    0.70839991    0.09618080    0.12640000
opls_146-126    H    0.96423013    0.59541987    0.89334890    0.11410000
opls_146-127    H    0.16212013    0.45381992    0.74535007    0.11930000
opls_146-128    H    0.20564010    0.39772007    0.77175009    0.12490000
opls_146-129    H    0.11494003    0.33932002    0.39785020    0.12480000
opls_146-130    H    0.07261000    0.39612999    0.39239079    0.10670000
opls_146-131    H    0.18724995    0.20839991    0.09618080    0.12640000
opls_146-132    H    0.53576987    0.90458013    0.89334890    0.11410000
opls_146-133    H    0.33787987    0.04618008    0.74535007    0.11930000
opls_146-134    H    0.29435990    0.10227993    0.77175009    0.12480000
opls_146-135    H    0.38505997    0.16067998    0.39785020    0.12480000
opls_146-136    H    0.42739000    0.10387001    0.39239079    0.10670000
opls_146-137    H    0.31275005    0.29160009    0.09618080    0.12640000
opls_146-138    H    0.03576987    0.40458013    0.89334890    0.11410000
opls_146-139    H    0.83787987    0.54618008    0.74535007    0.11930000
opls_146-140    H    0.79435990    0.60227993    0.77175009    0.12490000
opls_146-141    H    0.88505997    0.66067998    0.39785020    0.12480000
opls_146-142    H    0.92739000    0.60387001    0.39239079    0.10670000
opls_146-143    H    0.81275005    0.79160009    0.09618080    0.12640000
opls_146-144    H    0.46423013    0.90458013    0.89334890    0.11410000
opls_146-145    H    0.66212013    0.04618008    0.74535007    0.11930000
opls_146-146    H    0.70564010    0.10227993    0.77175009    0.12480000
opls_146-147    H    0.61494003    0.16067998    0.39785020    0.12480000
opls_146-148    H    0.57261000    0.10387001    0.39239079    0.10670000
opls_146-149    H    0.68724995    0.29160009    0.09618080    0.12640000
opls_146-150    H    0.96423013    0.40458013    0.89334890    0.11410000
opls_146-151    H    0.16212013    0.54618008    0.74535007    0.11930000
opls_146-152    H    0.20564010    0.60227993    0.77175009    0.12480000
opls_146-153    H    0.11494003    0.66067998    0.39785020    0.12480000
opls_146-154    H    0.07261000    0.60387001    0.39239079    0.10670000
opls_146-155    H    0.18724995    0.79160009    0.09618080    0.12640000
opls_146-156    H    0.53576987    0.09541987    0.89334890    0.11410000
opls_146-157    H    0.33787987    0.95381992    0.74535007    0.11930000
opls_146-158    H    0.29435990    0.89772007    0.77175009    0.12490000
opls_146-159    H    0.38505997    0.83932002    0.39785020    0.12480000
opls_146-160    H    0.42739000    0.89612999    0.39239079    0.10670000
opls_146-161    H    0.31275005    0.70839991    0.09618080    0.12640000
opls_146-162    H    0.03576987    0.59541987    0.89334890    0.11410000
opls_146-163    H    0.83787987    0.45381992    0.74535007    0.11930000
opls_146-164    H    0.79435990    0.39772007    0.77175009    0.12480000
opls_146-165    H    0.88505997    0.33932002    0.39785020    0.12480000
opls_146-166    H    0.92739000    0.39612999    0.39239079    0.10670000
opls_146-167    H    0.81275005    0.20839991    0.09618080    0.12640000
opls_146-168    H    0.13961988    0.50000000    0.14722915    0.12180000
opls_146-169    H    0.63961988    0.00000000    0.14722915    0.12180000
opls_146-170    H    0.86038012    0.50000000    0.14722915    0.12180000
opls_146-171    H    0.36038012    0.00000000    0.14722915    0.12180000
opls_542-172    N    0.18898997    0.66954998    0.09311004    -0.20320000
opls_542-173    N    0.68898997    0.16954998    0.09311004    -0.20320000
opls_542-174    N    0.81101003    0.33045002    0.09311004    -0.20320000
opls_542-175    N    0.31101003    0.83045002    0.09311004    -0.20320000
opls_542-176    N    0.18898997    0.33045002    0.09311004    -0.20310000
opls_542-177    N    0.68898997    0.83045002    0.09311004    -0.20320000
opls_542-178    N    0.81101003    0.66954998    0.09311004    -0.20320000
opls_542-179    N    0.31101003    0.16954998    0.09311004    -0.20320000
opls_236-180    O    0.64089986    0.21920990    0.07014969    -0.37950000
opls_236-181    O    0.75501995    0.14351997    0.11708955    -0.37390000
opls_236-182    O    0.14089986    0.71920990    0.07014969    -0.37950000
opls_236-183    O    0.25501995    0.64351997    0.11708955    -0.37390000
opls_236-184    O    0.35910014    0.78079010    0.07014969    -0.37950000
opls_236-185    O    0.24498005    0.85648003    0.11708955    -0.37390000
opls_236-186    O    0.85910014    0.28079010    0.07014969    -0.37940000
opls_236-187    O    0.74498005    0.35648003    0.11708955    -0.37390000
opls_236-188    O    0.64089986    0.78079010    0.07014969    -0.37950000
opls_236-189    O    0.75501995    0.85648003    0.11708955    -0.37390000
opls_236-190    O    0.14089986    0.28079010    0.07014969    -0.37950000
opls_236-191    O    0.25501995    0.35648003    0.11708955    -0.37390000
opls_236-192    O    0.35910014    0.21920990    0.07014969    -0.37940000
opls_236-193    O    0.24498005    0.14351997    0.11708955    -0.37390000
opls_236-194    O    0.85910014    0.71920990    0.07014969    -0.37950000
opls_236-195    O    0.74498005    0.64351997    0.11708955    -0.37390000
