#======================================================================
# Crystal Data Generated By AuToFF
#----------------------------------------------------------------------

data_AuToFF_phase_1

_cell_length_a                         22.9400
_cell_length_b                         23.1400
_cell_length_c                         7.3600
_cell_angle_alpha                      90.00
_cell_angle_beta                       90.00
_cell_angle_gamma                      120.00
_symmetry_space_group_name_H-M_alt     'P 1'
_symmetry_space_group_IT_number        1

loop_
_space_group_symop_operation_xyz
   'x, y, z'

loop_
   _atom_site_label
   _atom_site_type_symbol
   _atom_site_fract_x
   _atom_site_fract_y
   _atom_site_fract_z
   _atom_site_charge
opls_146-0    H    0.36325986    0.13579007    0.02733967    0.11740000
opls_146-1    H    0.40778982    0.97950981    0.92138995    0.11510000
opls_146-2    H    0.56774004    0.17702994    0.04030978    0.11750000
opls_144-3    H    0.58694001    0.27341000    0.93927038    0.11830000
opls_144-4    H    0.48069975    0.96351965    0.09910054    0.11310000
opls_146-5    H    0.48659017    0.86310014    0.04366984    0.11240000
opls_146-6    H    0.55143970    0.80706972    0.06414946    0.11890000
opls_146-7    H    0.73551992    0.99704988    0.04794973    0.11170000
opls_146-8    H    0.67071000    0.05325993    0.05186957    0.09450000
opls_144-9    H    0.74024990    0.89653006    0.12182065    0.11370000
opls_146-10    H    0.65632026    0.68157015    0.00461957    0.12030000
opls_146-11    H    0.86129009    0.72535995    0.98599049    0.09930000
opls_146-12    H    0.81600992    0.88404991    0.96564946    0.11860000
opls_144-13    H    0.95735999    0.80280970    0.07572962    0.11740000
opls_146-14    H    0.05641994    0.81328983    0.87963995    0.11300000
opls_146-15    H    0.17766025    0.88222006    0.83499049    0.11660000
opls_146-16    H    0.17092985    0.05382980    0.03560054    0.11300000
opls_146-17    H    0.04940982    0.98494997    0.07811005    0.12030000
opls_144-18    H    0.27458008    0.06632990    0.86747011    0.11730000
opls_146-19    H    0.67803984    0.37404010    0.11780978    0.11330000
opls_146-20    H    0.73066998    0.49464990    0.14852989    0.09740000
opls_146-21    H    0.54684009    0.48510990    0.97202038    0.11330000
opls_146-22    H    0.49416981    0.36429002    0.94103940    0.11570000
opls_144-23    H    0.64022022    0.58893015    0.12983016    0.11570000
opls_146-24    H    0.36325986    0.13579007    0.52733967    0.11740000
opls_146-25    H    0.40778982    0.97950981    0.42138995    0.11510000
opls_146-26    H    0.56774004    0.17702994    0.54030978    0.11750000
opls_144-27    H    0.58694001    0.27341000    0.43927038    0.11830000
opls_144-28    H    0.48069975    0.96351965    0.59910054    0.11310000
opls_146-29    H    0.48659017    0.86310014    0.54366984    0.11240000
opls_146-30    H    0.55143970    0.80706972    0.56414946    0.11890000
opls_146-31    H    0.73551992    0.99704988    0.54794973    0.11170000
opls_146-32    H    0.67071000    0.05325993    0.55186957    0.09450000
opls_144-33    H    0.74024990    0.89653006    0.62182065    0.11370000
opls_146-34    H    0.65632026    0.68157015    0.50461957    0.12030000
opls_146-35    H    0.86129009    0.72535995    0.48599049    0.09930000
opls_146-36    H    0.81600992    0.88404991    0.46564946    0.11860000
opls_144-37    H    0.95735999    0.80280970    0.57572962    0.11740000
opls_146-38    H    0.05641994    0.81328983    0.37963995    0.11300000
opls_146-39    H    0.17766025    0.88222006    0.33499049    0.11660000
opls_146-40    H    0.17092985    0.05382980    0.53560054    0.11300000
opls_146-41    H    0.04940982    0.98494997    0.57811005    0.12030000
opls_144-42    H    0.27458008    0.06632990    0.36747011    0.11730000
opls_146-43    H    0.67803984    0.37404010    0.61780978    0.11330000
opls_146-44    H    0.73066998    0.49464990    0.64852989    0.09740000
opls_146-45    H    0.54684009    0.48510990    0.47202038    0.11330000
opls_146-46    H    0.49416981    0.36429002    0.44103940    0.11570000
opls_144-47    H    0.64022022    0.58893015    0.62983016    0.11570000
opls_145-48    C    0.39948025    0.11943015    0.00914946    -0.17660000
opls_700-49    C    0.37673008    0.05157978    0.97508967    0.07050000
opls_145-50    C    0.42452003    0.03103020    0.95488995    -0.17680000
opls_700-51    C    0.49351022    0.07606003    0.97850951    0.06330000
opls_145-52    C    0.51486996    0.14329014    0.01469973    -0.18070000
opls_700-53    C    0.46858995    0.16628983    0.02505978    0.06680000
opls_141-54    C    0.49144011    0.23841021    0.05741033    -0.00370000
opls_142-55    C    0.55322989    0.28688018    0.00474049    -0.15650000
opls_700-56    C    0.58159009    0.35952002    0.03172962    0.12220000
opls_423-57    C    0.44520014    0.25508999    0.14441984    0.22760000
opls_141-58    C    0.54373020    0.05342011    0.96616984    -0.00200000
opls_142-59    C    0.52946986    0.99368009    0.03580027    -0.09180000
opls_700-60    C    0.57287016    0.96279010    0.03385054    0.10770000
opls_145-61    C    0.54101968    0.89291975    0.04099049    -0.12060000
opls_145-62    C    0.57850980    0.86053974    0.04855978    -0.12040000
opls_700-63    C    0.64924992    0.89733995    0.04372011    0.10790000
opls_145-64    C    0.68110978    0.96722976    0.04364946    -0.12080000
opls_145-65    C    0.64359969    0.99964970    0.04133967    -0.12070000
opls_142-66    C    0.69254009    0.86642002    0.05363043    -0.09510000
opls_141-67    C    0.67944987    0.80722990    0.98233016    0.00010000
opls_700-68    C    0.73051026    0.78527013    0.99247962    0.06870000
opls_145-69    C    0.70962999    0.71702005    0.00336005    -0.18070000
opls_700-70    C    0.75645983    0.69459970    0.00544973    0.06190000
opls_145-71    C    0.82543006    0.74244991    0.99282065    -0.18330000
opls_700-72    C    0.84804995    0.81123992    0.98080978    0.06650000
opls_145-73    C    0.79970986    0.83167971    0.98080978    -0.18170000
opls_141-74    C    0.92123007    0.86189005    0.95713043    -0.00460000
opls_142-75    C    0.97030998    0.84947976    0.01025951    -0.15210000
opls_700-76    C    0.04332971    0.89395968    0.97853940    0.12230000
opls_145-77    C    0.08106989    0.86579976    0.91408016    -0.12000000
opls_145-78    C    0.15061019    0.90511995    0.89082065    -0.12060000
opls_700-79    C    0.18413005    0.97311005    0.93736957    0.12410000
opls_145-80    C    0.14623990    0.00146009    0.99955027    -0.12270000
opls_145-81    C    0.07660987    0.96217982    0.02213995    -0.12050000
opls_142-82    C    0.25803969    0.01668976    0.91883016    -0.13210000
opls_141-83    C    0.30453999    0.00094013    0.97410054    0.00150000
opls_423-84    C    0.93843994    0.92477980    0.87144022    0.22750000
opls_423-85    C    0.28481988    0.93547001    0.04605027    0.22750000
opls_423-86    C    0.61663995    0.76350997    0.89114946    0.22750000
opls_423-87    C    0.60703023    0.09760013    0.87813043    0.22760000
opls_145-88    C    0.64896026    0.39789010    0.08600951    -0.11960000
opls_145-89    C    0.67936016    0.46714019    0.10135054    -0.12050000
opls_700-90    C    0.64337976    0.49968987    0.05792935    0.12410000
opls_145-91    C    0.57572013    0.46121000    0.00566984    -0.12270000
opls_145-92    C    0.54529986    0.39191001    0.99025951    -0.12000000
opls_142-93    C    0.67320008    0.57312013    0.07175000    -0.15750000
opls_141-94    C    0.73430012    0.61934008    0.00744973    0.00140000
opls_423-95    C    0.77981999    0.59919969    0.93291033    0.22750000
opls_145-96    C    0.39948025    0.11943015    0.50914946    -0.17640000
opls_700-97    C    0.37673008    0.05157978    0.47508967    0.07050000
opls_145-98    C    0.42452003    0.03103020    0.45488995    -0.17680000
opls_700-99    C    0.49351022    0.07606003    0.47850951    0.06330000
opls_145-100    C    0.51486996    0.14329014    0.51469973    -0.18070000
opls_700-101    C    0.46858995    0.16628983    0.52505978    0.06680000
opls_141-102    C    0.49144011    0.23841021    0.55741033    -0.00370000
opls_142-103    C    0.55322989    0.28688018    0.50474049    -0.15650000
opls_700-104    C    0.58159009    0.35952002    0.53172962    0.12220000
opls_423-105    C    0.44520014    0.25508999    0.64442935    0.22760000
opls_141-106    C    0.54373020    0.05342011    0.46616984    -0.00200000
opls_142-107    C    0.52946986    0.99368009    0.53580027    -0.09170000
opls_700-108    C    0.57287016    0.96279010    0.53385054    0.10770000
opls_145-109    C    0.54101968    0.89291975    0.54099049    -0.12060000
opls_145-110    C    0.57850980    0.86053974    0.54855978    -0.12040000
opls_700-111    C    0.64924992    0.89733995    0.54372011    0.10790000
opls_145-112    C    0.68110978    0.96722976    0.54364946    -0.12080000
opls_145-113    C    0.64359969    0.99964970    0.54133967    -0.12070000
opls_142-114    C    0.69254009    0.86642002    0.55363043    -0.09510000
opls_141-115    C    0.67944987    0.80722990    0.48233016    0.00010000
opls_700-116    C    0.73051026    0.78527013    0.49247962    0.06880000
opls_145-117    C    0.70962999    0.71702005    0.50336005    -0.18070000
opls_700-118    C    0.75645983    0.69459970    0.50544973    0.06190000
opls_145-119    C    0.82543006    0.74244991    0.49282065    -0.18340000
opls_700-120    C    0.84804995    0.81123992    0.48080978    0.06650000
opls_145-121    C    0.79970986    0.83167971    0.48080978    -0.18170000
opls_141-122    C    0.92123007    0.86189005    0.45713043    -0.00460000
opls_142-123    C    0.97030998    0.84947976    0.51025951    -0.15210000
opls_700-124    C    0.04332971    0.89395968    0.47853940    0.12230000
opls_145-125    C    0.08106989    0.86579976    0.41408016    -0.12000000
opls_145-126    C    0.15061019    0.90511995    0.39082065    -0.12070000
opls_700-127    C    0.18413005    0.97311005    0.43736957    0.12410000
opls_145-128    C    0.14623990    0.00146009    0.49955027    -0.12260000
opls_145-129    C    0.07660987    0.96217982    0.52213995    -0.12060000
opls_142-130    C    0.25803969    0.01668976    0.41883016    -0.13210000
opls_141-131    C    0.30453999    0.00094013    0.47410054    0.00150000
opls_423-132    C    0.93843994    0.92477980    0.37144022    0.22750000
opls_423-133    C    0.28481988    0.93547001    0.54605027    0.22750000
opls_423-134    C    0.61663995    0.76350997    0.39114946    0.22750000
opls_423-135    C    0.60703023    0.09760013    0.37813043    0.22760000
opls_145-136    C    0.64896026    0.39789010    0.58600951    -0.11960000
opls_145-137    C    0.67936016    0.46714019    0.60135054    -0.12050000
opls_700-138    C    0.64337976    0.49968987    0.55792935    0.12410000
opls_145-139    C    0.57572013    0.46121000    0.50566984    -0.12270000
opls_145-140    C    0.54529986    0.39191001    0.49025951    -0.12000000
opls_142-141    C    0.67320008    0.57312013    0.57175000    -0.15750000
opls_141-142    C    0.73430012    0.61934008    0.50744973    0.00140000
opls_423-143    C    0.77981999    0.59919969    0.43291033    0.22750000
opls_753-144    N    0.40764001    0.26788002    0.21283016    -0.31440000
opls_753-145    N    0.95167985    0.97506965    0.80405978    -0.31440000
opls_753-146    N    0.26965997    0.88319013    0.10286957    -0.31440000
opls_753-147    N    0.56641994    0.72783003    0.81897011    -0.30190000
opls_753-148    N    0.65763008    0.13365982    0.80824049    -0.31430000
opls_753-149    N    0.81700984    0.58392012    0.87464946    -0.31440000
opls_753-150    N    0.40764001    0.26788002    0.71283016    -0.31440000
opls_753-151    N    0.95167985    0.97506965    0.30405978    -0.31440000
opls_753-152    N    0.26965997    0.88319013    0.60286957    -0.31440000
opls_753-153    N    0.56641994    0.72783003    0.31897011    -0.30180000
opls_753-154    N    0.65763008    0.13365982    0.30824049    -0.31440000
opls_753-155    N    0.81700984    0.58392012    0.37464946    -0.31440000
