#======================================================================
# Crystal Data Generated By AuToFF
#----------------------------------------------------------------------

data_AuToFF_phase_1

_cell_length_a                         33.8000
_cell_length_b                         34.0000
_cell_length_c                         7.7200
_cell_angle_alpha                      90.00
_cell_angle_beta                       75.00
_cell_angle_gamma                      90.00
_symmetry_space_group_name_H-M_alt     'P 1'
_symmetry_space_group_IT_number        1

loop_
_space_group_symop_operation_xyz
   'x, y, z'

loop_
   _atom_site_label
   _atom_site_type_symbol
   _atom_site_fract_x
   _atom_site_fract_y
   _atom_site_fract_z
   _atom_site_charge
opls_700-0    C    0.46106997    0.46371000    0.87208980    -0.00290000
opls_145-1    C    0.52017009    0.42853000    0.68642944    -0.22190000
opls_700-2    C    0.58094993    0.46377000    0.50381993    0.01730000
opls_700-3    C    0.60772003    0.43091000    0.46725002    0.06470000
opls_145-4    C    0.64620012    0.43410000    0.50786045    -0.22200000
opls_145-5    C    0.67301004    0.40204000    0.48861934    -0.23070000
opls_145-6    C    0.66161007    0.36533000    0.43197956    0.18240000
opls_145-7    C    0.62454005    0.36212000    0.38238020    -0.23010000
opls_145-8    C    0.59825010    0.39473000    0.39700950    -0.22220000
opls_700-9    C    0.76522008    0.21171000    0.51938929    0.04970000
opls_145-10    C    0.79064019    0.24516000    0.50909956    -0.22200000
opls_145-11    C    0.77557993    0.28297000    0.49049008    -0.22200000
opls_142-12    C    0.77972020    0.17366000    0.53730949    0.09570000
opls_700-13    C    0.95915014    0.96371000    0.37787031    -0.00330000
opls_145-14    C    0.01851013    0.92852000    0.19382992    -0.22190000
opls_700-15    C    0.07874009    0.96379000    0.00722950    0.01750000
opls_700-16    C    0.10573999    0.93113000    0.96914959    0.06450000
opls_145-17    C    0.14463992    0.93493000    0.00544056    -0.22200000
opls_145-18    C    0.17203015    0.90333000    0.98341949    -0.23080000
opls_145-19    C    0.16076014    0.86638000    0.92872019    0.18250000
opls_145-20    C    0.12323008    0.86252000    0.88346978    -0.23010000
opls_145-21    C    0.09630001    0.89470000    0.90099974    -0.22230000
opls_700-22    C    0.26700999    0.71168000    0.01385955    -0.11980000
opls_727-23    C    0.28754998    0.74616000    0.04656998    0.11260000
opls_727-24    C    0.27055984    0.78392000    0.03306043    0.10650000
opls_142-25    C    0.28287993    0.67349000    0.02129959    0.09460000
opls_700-26    C    0.96106997    0.96371000    0.87208980    -0.00290000
opls_145-27    C    0.02017009    0.92853000    0.68642944    -0.22190000
opls_700-28    C    0.08094993    0.96377000    0.50381993    0.01640000
opls_700-29    C    0.10772003    0.93090000    0.46725002    0.06460000
opls_145-30    C    0.14620012    0.93409000    0.50786045    -0.22200000
opls_145-31    C    0.17301004    0.90204000    0.48861934    -0.23060000
opls_145-32    C    0.16161007    0.86533000    0.43197956    0.18240000
opls_145-33    C    0.12454005    0.86212000    0.38238020    -0.23010000
opls_145-34    C    0.09825010    0.89473000    0.39700950    -0.22230000
opls_700-35    C    0.26522004    0.71171000    0.51940002    0.04970000
opls_145-36    C    0.29064019    0.74516000    0.50909956    -0.22190000
opls_145-37    C    0.27557993    0.78297000    0.49049008    -0.22200000
opls_142-38    C    0.27972020    0.67366000    0.53730949    0.09570000
opls_700-39    C    0.45915014    0.46371000    0.37787031    -0.00330000
opls_145-40    C    0.51851013    0.42852000    0.19382992    -0.22190000
opls_700-41    C    0.57874009    0.46379000    0.00722950    0.01750000
opls_700-42    C    0.60573999    0.43113000    0.96914959    0.06450000
opls_145-43    C    0.64463992    0.43493000    0.00544056    -0.22200000
opls_145-44    C    0.67203015    0.40333000    0.98341949    -0.23080000
opls_145-45    C    0.66076018    0.36639000    0.92872957    0.18250000
opls_145-46    C    0.62323008    0.36252000    0.88346978    -0.23010000
opls_145-47    C    0.59630001    0.39470000    0.90099974    -0.22230000
opls_700-48    C    0.76700999    0.21168000    0.01385955    -0.11980000
opls_727-49    C    0.78754998    0.24616000    0.04656998    0.11260000
opls_727-50    C    0.77055984    0.28392000    0.03306043    0.10650000
opls_142-51    C    0.78287993    0.17349000    0.02129959    0.09460000
opls_700-52    C    0.53893003    0.46371000    0.12791020    -0.00290000
opls_145-53    C    0.47982999    0.42853000    0.31356922    -0.22190000
opls_700-54    C    0.41905007    0.46377000    0.49618007    0.01730000
opls_700-55    C    0.39227997    0.43091000    0.53274998    0.06470000
opls_145-56    C    0.35380017    0.43410000    0.49213955    -0.22200000
opls_145-57    C    0.32699004    0.40204000    0.51137932    -0.23070000
opls_145-58    C    0.33838993    0.36533000    0.56802044    0.18240000
opls_145-59    C    0.37545995    0.36212000    0.61761980    -0.23010000
opls_145-60    C    0.40174998    0.39473000    0.60298916    -0.22230000
opls_700-61    C    0.23478000    0.21171000    0.48060936    0.04970000
opls_145-62    C    0.20936011    0.24516000    0.49090044    -0.22200000
opls_145-63    C    0.22442007    0.28297000    0.50950992    -0.22200000
opls_142-64    C    0.22028018    0.17366000    0.46268917    0.09570000
opls_700-65    C    0.04085015    0.96371000    0.62212969    -0.00330000
opls_145-66    C    0.98149017    0.92852000    0.80617008    -0.22190000
opls_700-67    C    0.92125999    0.96379000    0.99276916    0.01750000
opls_700-68    C    0.89426001    0.93113000    0.03085041    0.06450000
opls_145-69    C    0.85536008    0.93493000    0.99455944    -0.22200000
opls_145-70    C    0.82796985    0.90333000    0.01658051    -0.23080000
opls_145-71    C    0.83924015    0.86638000    0.07127981    0.18250000
opls_145-72    C    0.87676992    0.86252000    0.11653022    -0.23010000
opls_145-73    C    0.90369999    0.89470000    0.09900026    -0.22230000
opls_700-74    C    0.73299009    0.71168000    0.98613911    -0.11980000
opls_727-75    C    0.71245002    0.74616000    0.95343002    0.11260000
opls_727-76    C    0.72944016    0.78392000    0.96693957    0.10650000
opls_142-77    C    0.71712015    0.67349000    0.97869907    0.09460000
opls_700-78    C    0.03893003    0.96371000    0.12791020    -0.00290000
opls_145-79    C    0.97982999    0.92853000    0.31356922    -0.22190000
opls_700-80    C    0.91905007    0.96377000    0.49618007    0.01640000
opls_700-81    C    0.89227997    0.93090000    0.53274998    0.06460000
opls_145-82    C    0.85380017    0.93409000    0.49213955    -0.22200000
opls_145-83    C    0.82699004    0.90204000    0.51137932    -0.23070000
opls_145-84    C    0.83838993    0.86533000    0.56802044    0.18240000
opls_145-85    C    0.87545995    0.86212000    0.61761980    -0.23010000
opls_145-86    C    0.90174998    0.89473000    0.60298916    -0.22230000
opls_700-87    C    0.73478000    0.71171000    0.48060936    0.04970000
opls_145-88    C    0.70936011    0.74516000    0.49090044    -0.22200000
opls_145-89    C    0.72442007    0.78297000    0.50950992    -0.22200000
opls_142-90    C    0.72028018    0.67366000    0.46268917    0.09570000
opls_700-91    C    0.54085015    0.46371000    0.62212969    -0.00330000
opls_145-92    C    0.48149017    0.42852000    0.80617008    -0.22190000
opls_700-93    C    0.42125999    0.46379000    0.99276916    0.01750000
opls_700-94    C    0.39426001    0.43113000    0.03085041    0.06450000
opls_145-95    C    0.35536008    0.43493000    0.99455944    -0.22200000
opls_145-96    C    0.32796985    0.40333000    0.01658051    -0.23080000
opls_145-97    C    0.33924015    0.36639000    0.07127981    0.18250000
opls_145-98    C    0.37676992    0.36252000    0.11653022    -0.23010000
opls_145-99    C    0.40369999    0.39470000    0.09900026    -0.22230000
opls_700-100    C    0.23299009    0.21168000    0.98613911    -0.11980000
opls_727-101    C    0.21245002    0.24616000    0.95343002    0.11260000
opls_727-102    C    0.22944016    0.28392000    0.96693957    0.10650000
opls_142-103    C    0.21712015    0.17349000    0.97869907    0.09460000
opls_700-104    C    0.53893003    0.53629000    0.12791020    -0.00290000
opls_145-105    C    0.47982999    0.57148000    0.31356922    -0.22190000
opls_700-106    C    0.41905007    0.53623000    0.49618007    0.01640000
opls_700-107    C    0.39227997    0.56910000    0.53274998    0.06460000
opls_145-108    C    0.35380017    0.56591000    0.49213955    -0.22200000
opls_145-109    C    0.32699004    0.59796000    0.51137932    -0.23070000
opls_145-110    C    0.33838993    0.63467000    0.56802044    0.18240000
opls_145-111    C    0.37545995    0.63788000    0.61761980    -0.23010000
opls_145-112    C    0.40174998    0.60527000    0.60298916    -0.22230000
opls_700-113    C    0.23478000    0.78829000    0.48060936    0.04970000
opls_145-114    C    0.20936011    0.75484000    0.49090044    -0.22200000
opls_145-115    C    0.22442007    0.71703000    0.50950992    -0.22200000
opls_142-116    C    0.22028018    0.82634000    0.46268917    0.09570000
opls_700-117    C    0.04085015    0.03629000    0.62212969    -0.00260000
opls_145-118    C    0.98149017    0.07148000    0.80617008    -0.22190000
opls_700-119    C    0.92125999    0.03621000    0.99276916    0.01750000
opls_700-120    C    0.89426001    0.06887000    0.03085041    0.06450000
opls_145-121    C    0.85536008    0.06507000    0.99455944    -0.22200000
opls_145-122    C    0.82796985    0.09668000    0.01658051    -0.23080000
opls_145-123    C    0.83924015    0.13362000    0.07127981    0.18250000
opls_145-124    C    0.87676992    0.13748000    0.11653022    -0.23010000
opls_145-125    C    0.90369999    0.10530000    0.09900026    -0.22230000
opls_700-126    C    0.73299009    0.28832000    0.98613911    -0.11980000
opls_727-127    C    0.71245002    0.25384000    0.95343002    0.11260000
opls_727-128    C    0.72944016    0.21608000    0.96693957    0.10650000
opls_142-129    C    0.71712015    0.32651000    0.97869907    0.09460000
opls_700-130    C    0.03893003    0.03629000    0.12791020    -0.00290000
opls_145-131    C    0.97982999    0.07148000    0.31356922    -0.22190000
opls_700-132    C    0.91905007    0.03623000    0.49618007    0.01640000
opls_700-133    C    0.89227997    0.06910000    0.53274998    0.06460000
opls_145-134    C    0.85380017    0.06591000    0.49213955    -0.22200000
opls_145-135    C    0.82699004    0.09796000    0.51137932    -0.23070000
opls_145-136    C    0.83838993    0.13467000    0.56802044    0.18240000
opls_145-137    C    0.87545995    0.13788000    0.61761980    -0.23010000
opls_145-138    C    0.90174998    0.10527000    0.60298916    -0.22230000
opls_700-139    C    0.73478000    0.28829000    0.48060936    0.04970000
opls_145-140    C    0.70936011    0.25484000    0.49090044    -0.22200000
opls_145-141    C    0.72442007    0.21703000    0.50950992    -0.22200000
opls_142-142    C    0.72028018    0.32634000    0.46268917    0.09570000
opls_700-143    C    0.54085015    0.53629000    0.62212969    -0.00260000
opls_145-144    C    0.48149017    0.57148000    0.80617008    -0.22190000
opls_700-145    C    0.42125999    0.53621000    0.99276916    0.01750000
opls_700-146    C    0.39426001    0.56887000    0.03085041    0.06450000
opls_145-147    C    0.35536008    0.56507000    0.99455944    -0.22200000
opls_145-148    C    0.32796985    0.59668000    0.01658051    -0.23080000
opls_145-149    C    0.33924015    0.63362000    0.07127981    0.18250000
opls_145-150    C    0.37676992    0.63748000    0.11653022    -0.23010000
opls_145-151    C    0.40369999    0.60530000    0.09900026    -0.22230000
opls_700-152    C    0.23299009    0.78832000    0.98613911    -0.11980000
opls_727-153    C    0.21245002    0.75384000    0.95343002    0.11260000
opls_727-154    C    0.22944016    0.71608000    0.96693957    0.10650000
opls_142-155    C    0.21712015    0.82651000    0.97869907    0.09460000
opls_700-156    C    0.46106997    0.53629000    0.87208980    -0.00290000
opls_145-157    C    0.52017009    0.57148000    0.68642944    -0.22190000
opls_700-158    C    0.58094993    0.53623000    0.50381993    0.01640000
opls_700-159    C    0.60772003    0.56910000    0.46725002    0.06460000
opls_145-160    C    0.64620012    0.56591000    0.50786045    -0.22200000
opls_145-161    C    0.67301004    0.59796000    0.48861934    -0.23070000
opls_145-162    C    0.66161007    0.63467000    0.43197956    0.18250000
opls_145-163    C    0.62454005    0.63788000    0.38238020    -0.23010000
opls_145-164    C    0.59825010    0.60527000    0.39700950    -0.22230000
opls_700-165    C    0.76522008    0.78829000    0.51938929    0.04970000
opls_145-166    C    0.79064019    0.75484000    0.50909956    -0.22200000
opls_145-167    C    0.77557993    0.71703000    0.49049008    -0.22200000
opls_142-168    C    0.77972020    0.82634000    0.53730949    0.09570000
opls_700-169    C    0.95915014    0.03629000    0.37787031    -0.00260000
opls_145-170    C    0.01851013    0.07148000    0.19382992    -0.22190000
opls_700-171    C    0.07874009    0.03621000    0.00722950    0.01750000
opls_700-172    C    0.10573999    0.06887000    0.96914959    0.06450000
opls_145-173    C    0.14463992    0.06507000    0.00544056    -0.22200000
opls_145-174    C    0.17203015    0.09668000    0.98341949    -0.23080000
opls_145-175    C    0.16076014    0.13362000    0.92872019    0.18250000
opls_145-176    C    0.12323008    0.13748000    0.88346978    -0.23010000
opls_145-177    C    0.09630001    0.10530000    0.90099974    -0.22220000
opls_700-178    C    0.26700999    0.28832000    0.01385955    -0.11980000
opls_727-179    C    0.28754998    0.25384000    0.04656998    0.11260000
opls_727-180    C    0.27055984    0.21608000    0.03306043    0.10650000
opls_142-181    C    0.28287993    0.32651000    0.02129959    0.09460000
opls_700-182    C    0.96106997    0.03629000    0.87208980    -0.00290000
opls_145-183    C    0.02017009    0.07148000    0.68642944    -0.22190000
opls_700-184    C    0.08094993    0.03623000    0.50381993    0.01640000
opls_700-185    C    0.10772003    0.06910000    0.46725002    0.06460000
opls_145-186    C    0.14620012    0.06591000    0.50786045    -0.22190000
opls_145-187    C    0.17301004    0.09796000    0.48861934    -0.23070000
opls_145-188    C    0.16161007    0.13467000    0.43197956    0.18240000
opls_145-189    C    0.12454005    0.13788000    0.38238020    -0.23010000
opls_145-190    C    0.09825010    0.10527000    0.39700950    -0.22230000
opls_700-191    C    0.26522004    0.28829000    0.51940002    0.04970000
opls_145-192    C    0.29064019    0.25484000    0.50909956    -0.22200000
opls_145-193    C    0.27557993    0.21703000    0.49049008    -0.22190000
opls_142-194    C    0.27972020    0.32634000    0.53730949    0.09570000
opls_700-195    C    0.45915014    0.53629000    0.37787031    -0.00260000
opls_145-196    C    0.51851013    0.57148000    0.19382992    -0.22190000
opls_700-197    C    0.57874009    0.53621000    0.00722950    0.01750000
opls_700-198    C    0.60573999    0.56887000    0.96914959    0.06450000
opls_145-199    C    0.64463992    0.56507000    0.00544056    -0.22200000
opls_145-200    C    0.67203015    0.59668000    0.98341949    -0.23080000
opls_145-201    C    0.66076018    0.63362000    0.92872957    0.18250000
opls_145-202    C    0.62323008    0.63748000    0.88346978    -0.23010000
opls_145-203    C    0.59630001    0.60530000    0.90099974    -0.22230000
opls_700-204    C    0.76700999    0.78832000    0.01385955    -0.11980000
opls_727-205    C    0.78754998    0.75384000    0.04656998    0.11260000
opls_727-206    C    0.77055984    0.71608000    0.03306043    0.10650000
opls_142-207    C    0.78287993    0.82651000    0.02129959    0.09460000
opls_145-208    C    0.59806995    0.50000000    0.43448997    -0.14620000
opls_700-209    C    0.48119010    0.50000000    0.81037019    0.00100000
opls_145-210    C    0.09806995    0.00000000    0.43448997    -0.14620000
opls_700-211    C    0.98119010    0.00000000    0.81037019    0.00100000
opls_145-212    C    0.40193005    0.50000000    0.56551003    -0.14620000
opls_700-213    C    0.51880990    0.50000000    0.18962981    0.00100000
opls_145-214    C    0.90193005    0.00000000    0.56551003    -0.14620000
opls_700-215    C    0.01880990    0.00000000    0.18962981    0.00100000
opls_145-216    C    0.09546001    0.00000000    0.93586922    -0.14710000
opls_700-217    C    0.97928010    0.00000000    0.31640014    0.00040000
opls_145-218    C    0.59546001    0.50000000    0.93586922    -0.14710000
opls_700-219    C    0.47928010    0.50000000    0.31640014    0.00040000
opls_145-220    C    0.90454007    0.00000000    0.06412944    -0.14710000
opls_700-221    C    0.02072020    0.00000000    0.68359986    0.00040000
opls_145-222    C    0.40454007    0.50000000    0.06412944    -0.14710000
opls_700-223    C    0.52072020    0.50000000    0.68359986    0.00040000
opls_146-224    H    0.53261023    0.40171000    0.64806925    0.20530000
opls_146-225    H    0.65494017    0.45977000    0.55636017    0.20510000
opls_146-226    H    0.70006016    0.40561000    0.52209952    0.20530000
opls_146-227    H    0.61650996    0.33582000    0.33653974    0.20510000
opls_146-228    H    0.57184997    0.39155000    0.35831942    0.20560000
opls_146-229    H    0.82061017    0.24229000    0.51230999    0.20510000
opls_146-230    H    0.79495993    0.30652000    0.48156954    0.20510000
opls_144-231    H    0.23148014    0.84985000    0.02008998    0.10000000
opls_146-232    H    0.03108997    0.90172000    0.15625960    0.20530000
opls_146-233    H    0.15335001    0.96079000    0.05241017    0.20510000
opls_146-234    H    0.19952028    0.90749000    0.01226909    0.20530000
opls_146-235    H    0.11537994    0.83593000    0.83947995    0.20520000
opls_146-236    H    0.06951019    0.89101000    0.86607930    0.20520000
opls_144-237    H    0.73820004    0.34986000    0.47510041    0.10010000
opls_146-238    H    0.03261023    0.90171000    0.64806925    0.20530000
opls_146-239    H    0.15494017    0.95977000    0.55636017    0.20510000
opls_146-240    H    0.20006016    0.90561000    0.52209952    0.20530000
opls_146-241    H    0.11650996    0.83582000    0.33653974    0.20520000
opls_146-242    H    0.07186003    0.89155000    0.35831942    0.20530000
opls_146-243    H    0.32061017    0.74229000    0.51230999    0.20510000
opls_146-244    H    0.29495993    0.80651000    0.48156954    0.20510000
opls_144-245    H    0.73148014    0.34985000    0.02008998    0.10000000
opls_146-246    H    0.53108997    0.40172000    0.15625960    0.20530000
opls_146-247    H    0.65335001    0.46079000    0.05241017    0.20510000
opls_146-248    H    0.69952028    0.40749000    0.01226909    0.20520000
opls_146-249    H    0.61537994    0.33593000    0.83947995    0.20510000
opls_146-250    H    0.56951019    0.39101000    0.86607930    0.20520000
opls_144-251    H    0.23820004    0.84986000    0.47510041    0.10010000
opls_146-252    H    0.46739014    0.40171000    0.35192941    0.20540000
opls_146-253    H    0.34506012    0.45977000    0.44363983    0.20510000
opls_146-254    H    0.29994014    0.40561000    0.47790048    0.20530000
opls_146-255    H    0.38349004    0.33582000    0.66346026    0.20510000
opls_146-256    H    0.42814005    0.39155000    0.64167924    0.20530000
opls_146-257    H    0.17939013    0.24229000    0.48769001    0.20510000
opls_146-258    H    0.20504007    0.30652000    0.51843046    0.20510000
opls_144-259    H    0.76851986    0.84985000    0.97991002    0.10000000
opls_146-260    H    0.96891011    0.90172000    0.84373906    0.20530000
opls_146-261    H    0.84664999    0.96079000    0.94758983    0.20510000
opls_146-262    H    0.80049016    0.90749000    0.98772957    0.20520000
opls_146-263    H    0.88462006    0.83593000    0.16052005    0.20510000
opls_146-264    H    0.93049019    0.89101000    0.13391936    0.20520000
opls_144-265    H    0.26179996    0.34986000    0.52489959    0.10010000
opls_146-266    H    0.96739014    0.90171000    0.35192941    0.20540000
opls_146-267    H    0.84506012    0.95977000    0.44363983    0.20510000
opls_146-268    H    0.79994014    0.90561000    0.47790048    0.20530000
opls_146-269    H    0.88349004    0.83582000    0.66346026    0.20510000
opls_146-270    H    0.92815010    0.89155000    0.64167924    0.20550000
opls_146-271    H    0.67939013    0.74229000    0.48769001    0.20510000
opls_146-272    H    0.70504007    0.80651000    0.51843046    0.20510000
opls_144-273    H    0.26851986    0.34985000    0.97991002    0.10000000
opls_146-274    H    0.46891011    0.40172000    0.84373906    0.20530000
opls_146-275    H    0.34664999    0.46079000    0.94758983    0.20510000
opls_146-276    H    0.30049016    0.40749000    0.98772957    0.20520000
opls_146-277    H    0.38462006    0.33593000    0.16052005    0.20510000
opls_146-278    H    0.43049019    0.39101000    0.13391936    0.20520000
opls_144-279    H    0.76179996    0.84986000    0.52489959    0.10010000
opls_146-280    H    0.46739014    0.59829000    0.35192941    0.20530000
opls_146-281    H    0.34506012    0.54023000    0.44363983    0.20510000
opls_146-282    H    0.29994014    0.59439000    0.47790048    0.20530000
opls_146-283    H    0.38349004    0.66418000    0.66346026    0.20510000
opls_146-284    H    0.42814005    0.60845000    0.64167924    0.20530000
opls_146-285    H    0.17939013    0.75771000    0.48769001    0.20510000
opls_146-286    H    0.20504007    0.69349000    0.51843046    0.20510000
opls_144-287    H    0.76851986    0.15015000    0.97991002    0.10000000
opls_146-288    H    0.96891011    0.09828000    0.84373906    0.20530000
opls_146-289    H    0.84664999    0.03921000    0.94758983    0.20520000
opls_146-290    H    0.80049016    0.09251000    0.98772957    0.20520000
opls_146-291    H    0.88462006    0.16407000    0.16052005    0.20510000
opls_146-292    H    0.93049019    0.10899000    0.13391936    0.20520000
opls_144-293    H    0.26179996    0.65015000    0.52489959    0.10030000
opls_146-294    H    0.96739014    0.09829000    0.35192941    0.20530000
opls_146-295    H    0.84506012    0.04022000    0.44363983    0.20510000
opls_146-296    H    0.79994014    0.09439000    0.47790048    0.20530000
opls_146-297    H    0.88349004    0.16418000    0.66346026    0.20510000
opls_146-298    H    0.92815010    0.10845000    0.64167924    0.20550000
opls_146-299    H    0.67939013    0.25771000    0.48769001    0.20510000
opls_146-300    H    0.70504007    0.19349000    0.51843046    0.20510000
opls_144-301    H    0.26851986    0.65015000    0.97991002    0.10000000
opls_146-302    H    0.46891011    0.59828000    0.84373906    0.20530000
opls_146-303    H    0.34664999    0.53921000    0.94758983    0.20510000
opls_146-304    H    0.30049016    0.59251000    0.98772957    0.20520000
opls_146-305    H    0.38462006    0.66407000    0.16052005    0.20510000
opls_146-306    H    0.43049019    0.60899000    0.13391936    0.20520000
opls_144-307    H    0.76179996    0.15015000    0.52489959    0.10030000
opls_146-308    H    0.53261023    0.59829000    0.64806925    0.20530000
opls_146-309    H    0.65494017    0.54023000    0.55636017    0.20520000
opls_146-310    H    0.70006016    0.59439000    0.52209952    0.20540000
opls_146-311    H    0.61650996    0.66418000    0.33653974    0.20510000
opls_146-312    H    0.57184997    0.60845000    0.35831942    0.20550000
opls_146-313    H    0.82061017    0.75771000    0.51230999    0.20520000
opls_146-314    H    0.79495993    0.69349000    0.48156954    0.20510000
opls_144-315    H    0.23148014    0.15015000    0.02008998    0.10000000
opls_146-316    H    0.03108997    0.09828000    0.15625960    0.20540000
opls_146-317    H    0.15335001    0.03921000    0.05241017    0.20510000
opls_146-318    H    0.19952028    0.09251000    0.01226909    0.20520000
opls_146-319    H    0.11537994    0.16407000    0.83947995    0.20510000
opls_146-320    H    0.06951019    0.10899000    0.86607930    0.20520000
opls_144-321    H    0.73820004    0.65015000    0.47510041    0.10030000
opls_146-322    H    0.03261023    0.09829000    0.64806925    0.20530000
opls_146-323    H    0.15494017    0.04022000    0.55636017    0.20510000
opls_146-324    H    0.20006016    0.09439000    0.52209952    0.20530000
opls_146-325    H    0.11650996    0.16418000    0.33653974    0.20510000
opls_146-326    H    0.07186003    0.10845000    0.35831942    0.20530000
opls_146-327    H    0.32061017    0.25771000    0.51230999    0.20520000
opls_146-328    H    0.29495993    0.19349000    0.48156954    0.20510000
opls_144-329    H    0.73148014    0.65015000    0.02008998    0.10000000
opls_146-330    H    0.53108997    0.59828000    0.15625960    0.20530000
opls_146-331    H    0.65335001    0.53921000    0.05241017    0.20510000
opls_146-332    H    0.69952028    0.59251000    0.01226909    0.20520000
opls_146-333    H    0.61537994    0.66407000    0.83947995    0.20510000
opls_146-334    H    0.56951019    0.60899000    0.86607930    0.20520000
opls_144-335    H    0.23820004    0.15015000    0.47510041    0.10030000
opls_146-336    H    0.62552016    0.50000000    0.33870953    0.20510000
opls_146-337    H    0.12552016    0.00000000    0.33870953    0.20510000
opls_146-338    H    0.37448022    0.50000000    0.66128913    0.20510000
opls_146-339    H    0.87448022    0.00000000    0.66128913    0.20520000
opls_146-340    H    0.12244016    0.00000000    0.83715996    0.20510000
opls_146-341    H    0.62244016    0.50000000    0.83715996    0.20510000
opls_146-342    H    0.87756014    0.00000000    0.16284004    0.20510000
opls_146-343    H    0.37756014    0.50000000    0.16284004    0.20510000
opls_750-344    N    0.81691005    0.16804000    0.56787024    -0.35070000
opls_750-345    N    0.31722994    0.66671000    0.07427031    -0.33770000
opls_750-346    N    0.31691005    0.66804000    0.56787024    -0.35070000
opls_750-347    N    0.81722994    0.16671000    0.07427031    -0.33780000
opls_750-348    N    0.18308995    0.16804000    0.43212976    -0.35070000
opls_750-349    N    0.68277006    0.66671000    0.92572969    -0.33780000
opls_750-350    N    0.68308995    0.66804000    0.43212976    -0.35070000
opls_750-351    N    0.18277006    0.16671000    0.92572969    -0.33770000
opls_750-352    N    0.18308995    0.83196000    0.43212976    -0.35070000
opls_750-353    N    0.68277006    0.33329000    0.92572969    -0.33800000
opls_750-354    N    0.68308995    0.33196000    0.43212976    -0.35070000
opls_750-355    N    0.18277006    0.83329000    0.92572969    -0.33780000
opls_750-356    N    0.81691005    0.83196000    0.56787024    -0.35070000
opls_750-357    N    0.31722994    0.33329000    0.07427031    -0.33800000
opls_750-358    N    0.31691005    0.33196000    0.56787024    -0.35060000
opls_750-359    N    0.81722994    0.83329000    0.07427031    -0.33780000
opls_719-360    F    0.32256994    0.74353000    0.09086020    -0.10560000
opls_719-361    F    0.28913990    0.81608000    0.06744044    -0.09130000
opls_719-362    F    0.82256994    0.24353000    0.09086020    -0.10550000
opls_719-363    F    0.78913990    0.31608000    0.06744044    -0.09130000
opls_719-364    F    0.67743006    0.74353000    0.90913980    -0.10560000
opls_719-365    F    0.71086010    0.81608000    0.93255956    -0.09130000
opls_719-366    F    0.17743006    0.24353000    0.90913980    -0.10560000
opls_719-367    F    0.21086010    0.31608000    0.93255956    -0.09130000
opls_719-368    F    0.67743006    0.25647000    0.90913980    -0.10560000
opls_719-369    F    0.71086010    0.18392000    0.93255956    -0.09130000
opls_719-370    F    0.17743006    0.75647000    0.90913980    -0.10560000
opls_719-371    F    0.21086010    0.68392000    0.93255956    -0.09130000
opls_719-372    F    0.32256994    0.25647000    0.09086020    -0.10560000
opls_719-373    F    0.28913990    0.18392000    0.06744044    -0.09130000
opls_719-374    F    0.82256994    0.75647000    0.09086020    -0.10560000
opls_719-375    F    0.78913990    0.68392000    0.06744044    -0.09130000
