#======================================================================
# Crystal Data Generated By AuToFF
#----------------------------------------------------------------------

data_AuToFF_phase_1

_cell_length_a                         34.2947
_cell_length_b                         34.2947
_cell_length_c                         4.1674
_cell_angle_alpha                      90.00
_cell_angle_beta                       90.00
_cell_angle_gamma                      120.00
_symmetry_space_group_name_H-M_alt     'P 1'
_symmetry_space_group_IT_number        1

loop_
_space_group_symop_operation_xyz
   'x, y, z'

loop_
   _atom_site_label
   _atom_site_type_symbol
   _atom_site_fract_x
   _atom_site_fract_y
   _atom_site_fract_z
   _atom_site_charge
opls_145-0    C    0.43063996    0.78119992    0.04036090    -0.12310000
opls_145-1    C    0.45697021    0.82764019    0.99449057    -0.18810000
opls_166-2    C    0.44401008    0.85674012    0.12682008    0.25860000
opls_145-3    C    0.40587983    0.83934993    0.32436051    -0.18460000
opls_145-4    C    0.37990009    0.79300999    0.37740078    -0.12220000
opls_700-5    C    0.39148987    0.76327000    0.23044104    0.07280000
opls_700-6    C    0.36178001    0.71379000    0.26109085    0.06560000
opls_145-7    C    0.31483014    0.69483011    0.26375918    -0.16390000
opls_465-8    C    0.47413012    0.55120996    0.91075011    0.53000000
opls_700-9    C    0.48759003    0.52496997    0.70250996    -0.04010000
opls_145-10    C    0.45699000    0.47944989    0.63622882    -0.12070000
opls_145-11    C    0.46928008    0.45470989    0.43633920    -0.12210000
opls_145-12    C    0.21880014    0.64944000    0.04036090    -0.12130000
opls_145-13    C    0.17235990    0.62932995    0.99449057    -0.18810000
opls_166-14    C    0.14325994    0.58727014    0.12682008    0.25860000
opls_145-15    C    0.16065020    0.56653012    0.32436051    -0.18460000
opls_145-16    C    0.20698995    0.58689000    0.37740078    -0.12220000
opls_700-17    C    0.23673021    0.62822019    0.23044104    0.07280000
opls_700-18    C    0.28620995    0.64799017    0.26109085    0.06560000
opls_145-19    C    0.30517011    0.62000001    0.26375918    -0.16390000
opls_465-20    C    0.44879015    0.92292007    0.91075011    0.52990000
opls_700-21    C    0.47503000    0.96261997    0.70250996    -0.04010000
opls_145-22    C    0.52055019    0.97754013    0.63622882    -0.12070000
opls_145-23    C    0.54529000    0.01456999    0.43633920    -0.12220000
opls_145-24    C    0.35055990    0.56936008    0.04036090    -0.12130000
opls_145-25    C    0.37067007    0.54303019    0.99449057    -0.18810000
opls_166-26    C    0.41273015    0.55599008    0.12682008    0.25860000
opls_145-27    C    0.43346997    0.59411995    0.32436051    -0.18460000
opls_145-28    C    0.41310995    0.62010001    0.37740078    -0.12220000
opls_700-29    C    0.37178008    0.60851015    0.23044104    0.07280000
opls_700-30    C    0.35201021    0.63822017    0.26109085    0.06560000
opls_145-31    C    0.38000005    0.68516987    0.26375918    -0.16390000
opls_465-32    C    0.07708002    0.52586996    0.91075011    0.52990000
opls_700-33    C    0.03737997    0.51241007    0.70250996    -0.04010000
opls_145-34    C    0.02246010    0.54300999    0.63622882    -0.12070000
opls_145-35    C    0.98542992    0.53072012    0.43633920    -0.12220000
opls_145-36    C    0.56936004    0.21880008    0.95963910    -0.12130000
opls_145-37    C    0.54302996    0.17236014    0.00550943    -0.18810000
opls_166-38    C    0.55598992    0.14325988    0.87317992    0.25860000
opls_145-39    C    0.59412017    0.16065007    0.67563949    -0.18460000
opls_145-40    C    0.62009991    0.20699001    0.62259922    -0.12220000
opls_700-41    C    0.60851013    0.23673000    0.76955896    0.07280000
opls_700-42    C    0.63821999    0.28621000    0.73890915    0.06560000
opls_145-43    C    0.68516986    0.30516989    0.73624082    -0.16390000
opls_465-44    C    0.52586988    0.44879004    0.08924989    0.52990000
opls_700-45    C    0.51240997    0.47503003    0.29749004    -0.04010000
opls_145-46    C    0.54301000    0.52055011    0.36377118    -0.12070000
opls_145-47    C    0.53071992    0.54529011    0.56366080    -0.12220000
opls_145-48    C    0.78119986    0.35056000    0.95963910    -0.12310000
opls_145-49    C    0.82764010    0.37067005    0.00550943    -0.18800000
opls_166-50    C    0.85674006    0.41272986    0.87317992    0.25860000
opls_145-51    C    0.83934980    0.43346988    0.67563949    -0.18460000
opls_145-52    C    0.79301005    0.41311000    0.62259922    -0.12220000
opls_700-53    C    0.76326996    0.37178014    0.76955896    0.07280000
opls_700-54    C    0.71379022    0.35201016    0.73890915    0.06560000
opls_145-55    C    0.69482989    0.37999999    0.73624082    -0.16380000
opls_465-56    C    0.55120985    0.07707993    0.08924989    0.53000000
opls_700-57    C    0.52497000    0.03738003    0.29749004    -0.04010000
opls_145-58    C    0.47944981    0.02245987    0.36377118    -0.12070000
opls_145-59    C    0.45471000    0.98543001    0.56366080    -0.12220000
opls_145-60    C    0.64944010    0.43063992    0.95963910    -0.12310000
opls_145-61    C    0.62933010    0.45697015    0.00550943    -0.18810000
opls_166-62    C    0.58726985    0.44400992    0.87317992    0.25860000
opls_145-63    C    0.56653003    0.40588005    0.67563949    -0.18460000
opls_145-64    C    0.58689005    0.37989999    0.62259922    -0.12220000
opls_700-65    C    0.62821992    0.39148985    0.76955896    0.07280000
opls_700-66    C    0.64798996    0.36178017    0.73890915    0.06560000
opls_145-67    C    0.61999995    0.31483013    0.73624082    -0.16390000
opls_465-68    C    0.92291998    0.47413004    0.08924989    0.53000000
opls_700-69    C    0.96262003    0.48758993    0.29749004    -0.04010000
opls_145-70    C    0.97753990    0.45699001    0.36377118    -0.12050000
opls_145-71    C    0.01457008    0.46927988    0.56366080    -0.12220000
opls_146-72    H    0.44002992    0.75938987    0.91612036    0.12490000
opls_146-73    H    0.48657992    0.84120009    0.84383069    0.12530000
opls_146-74    H    0.39621002    0.86178993    0.43321016    0.12160000
opls_146-75    H    0.35091007    0.78055009    0.53411959    0.12310000
opls_146-76    H    0.57655010    0.53683997    0.26113884    0.12380000
opls_146-77    H    0.55479995    0.58043009    0.60992945    0.11890000
opls_146-78    H    0.30047002    0.71658999    0.25758986    0.12830000
opls_146-79    H    0.24061009    0.68063992    0.91612036    0.12490000
opls_146-80    H    0.15879999    0.64538008    0.84383069    0.12540000
opls_146-81    H    0.13820995    0.53442011    0.43321016    0.12150000
opls_146-82    H    0.21945006    0.57036008    0.53411959    0.12310000
opls_146-83    H    0.46315994    0.03970999    0.26113884    0.12380000
opls_146-84    H    0.41956994    0.97437010    0.60992945    0.11890000
opls_146-85    H    0.28341006    0.58387991    0.25758986    0.12830000
opls_146-86    H    0.31935982    0.55996987    0.91612036    0.12490000
opls_146-87    H    0.35461996    0.51342017    0.84383069    0.12540000
opls_146-88    H    0.46558004    0.60378996    0.43321016    0.12150000
opls_146-89    H    0.42964004    0.64909017    0.53411959    0.12310000
opls_146-90    H    0.96028996    0.42345004    0.26113884    0.12380000
opls_146-91    H    0.02562999    0.44520015    0.60992945    0.12030000
opls_146-92    H    0.41611991    0.69953010    0.25758986    0.12280000
opls_146-93    H    0.55997008    0.24061013    0.08387964    0.12490000
opls_146-94    H    0.51342008    0.15879991    0.15616931    0.12530000
opls_146-95    H    0.60378998    0.13821007    0.56678984    0.12150000
opls_146-96    H    0.64908993    0.21944991    0.46588041    0.12310000
opls_146-97    H    0.42344990    0.46316003    0.73886116    0.12380000
opls_146-98    H    0.44520005    0.41956991    0.39007055    0.11890000
opls_146-99    H    0.69952998    0.28341001    0.74241014    0.12840000
opls_146-100    H    0.75938991    0.31936008    0.08387964    0.12490000
opls_146-101    H    0.84120001    0.35461992    0.15616931    0.12530000
opls_146-102    H    0.86179005    0.46557989    0.56678984    0.12150000
opls_146-103    H    0.78054994    0.42963992    0.46588041    0.12310000
opls_146-104    H    0.53684006    0.96029001    0.73886116    0.12380000
opls_146-105    H    0.58043006    0.02562990    0.39007055    0.11890000
opls_146-106    H    0.71658994    0.41612009    0.74241014    0.12830000
opls_146-107    H    0.68064018    0.44003013    0.08387964    0.12490000
opls_146-108    H    0.64538020    0.48658017    0.15616931    0.12530000
opls_146-109    H    0.53441996    0.39621004    0.56678984    0.12150000
opls_146-110    H    0.57036013    0.35091017    0.46588041    0.12310000
opls_146-111    H    0.03971004    0.57654996    0.73886116    0.12380000
opls_146-112    H    0.97437018    0.55480019    0.39007055    0.12030000
opls_146-113    H    0.58388009    0.30046990    0.74241014    0.12290000
opls_473-114    O    0.43209995    0.52933999    0.06439027    -0.25980000
opls_466-115    O    0.49946010    0.59161996    0.94492969    -0.46780000
opls_473-116    O    0.47066004    0.90276019    0.06439027    -0.25980000
opls_466-117    O    0.40838001    0.90783998    0.94492969    -0.46780000
opls_473-118    O    0.09724018    0.56790015    0.06439027    -0.25980000
opls_466-119    O    0.09215989    0.50054007    0.94492969    -0.46770000
opls_473-120    O    0.56790005    0.47066001    0.93560973    -0.25980000
opls_466-121    O    0.50053990    0.40838004    0.05507031    -0.46770000
opls_473-122    O    0.52934012    0.09724014    0.93560973    -0.25980000
opls_466-123    O    0.59161999    0.09216002    0.05507031    -0.46770000
opls_473-124    O    0.90275999    0.43210018    0.93560973    -0.25980000
opls_466-125    O    0.90784011    0.49945993    0.05507031    -0.46780000
