#======================================================================
# Crystal Data Generated By AuToFF
#----------------------------------------------------------------------

data_AuToFF_phase_1

_cell_length_a                         28.9100
_cell_length_b                         28.9100
_cell_length_c                         4.2000
_cell_angle_alpha                      90.00
_cell_angle_beta                       90.00
_cell_angle_gamma                      120.00
_symmetry_space_group_name_H-M_alt     'P 1'
_symmetry_space_group_IT_number        1

loop_
_space_group_symop_operation_xyz
   'x, y, z'

loop_
   _atom_site_label
   _atom_site_type_symbol
   _atom_site_fract_x
   _atom_site_fract_y
   _atom_site_fract_z
   _atom_site_charge
opls_700-0    C    0.10823995    0.27058021    0.77125952    -0.20700000
opls_145-1    C    0.16315987    0.28894998    0.74390000    -0.23900000
opls_166-2    C    0.20206998    0.33831014    0.87164048    0.23220000
opls_700-3    C    0.18512025    0.37036018    0.02833095    -0.21550000
opls_145-4    C    0.13024996    0.35135015    0.06794048    -0.28350000
opls_166-5    C    0.09141006    0.30137010    0.94483095    0.23220000
opls_234-6    C    0.22479989    0.42425007    0.14879048    0.45080000
opls_234-7    C    0.06884013    0.21716003    0.63714048    0.45390000
opls_142-8    C    0.06623997    0.11368989    0.15755952    0.01950000
opls_700-9    C    0.03215997    0.05583983    0.11375000    0.05430000
opls_145-10    C    0.97634008    0.03200011    0.11026905    -0.17350000
opls_142-11    C    0.24688027    0.55788022    0.20230000    0.01280000
opls_700-12    C    0.29134025    0.61328030    0.23590000    0.06150000
opls_145-13    C    0.34474018    0.62500025    0.23791905    -0.17270000
opls_182-14    C    0.01740995    0.31081021    0.15680952    0.04160000
opls_136-15    C    0.95685016    0.27711020    0.18973095    -0.27590000
opls_908-16    C    0.93259992    0.30989995    0.31820952    -0.05060000
opls_558-17    C    0.83924000    0.28751010    0.17514048    0.04450000
opls_561-18    C    0.84466008    0.23231013    0.49206905    0.07170000
opls_507-19    C    0.79175987    0.21551006    0.43379048    0.07760000
opls_182-20    C    0.27634995    0.32792023    0.66671905    0.05350000
opls_136-21    C    0.27104015    0.27997998    0.85636905    -0.26290000
opls_908-22    C    0.27165017    0.23770020    0.64086905    -0.05110000
opls_142-23    C    0.21832999    0.14402006    0.84833095    0.03210000
opls_142-24    C    0.30014000    0.18689017    0.99921905    0.06440000
opls_261-25    C    0.22863003    0.11152987    0.03920952    0.19330000
opls_700-26    C    0.72942016    0.83766010    0.77125952    -0.20700000
opls_145-27    C    0.71105016    0.87421031    0.74390000    -0.23900000
opls_166-28    C    0.66169015    0.86376009    0.87164048    0.23210000
opls_700-29    C    0.62964022    0.81476020    0.02833095    -0.21550000
opls_145-30    C    0.64865002    0.77890017    0.06794048    -0.28350000
opls_166-31    C    0.69863026    0.79004018    0.94483095    0.23220000
opls_234-32    C    0.57575008    0.80055031    0.14879048    0.45080000
opls_234-33    C    0.78284013    0.85168027    0.63714048    0.45380000
opls_142-34    C    0.88631005    0.95255023    0.15755952    0.01950000
opls_700-35    C    0.94416002    0.97632005    0.11375000    0.05430000
opls_145-36    C    0.96800032    0.94434031    0.11026905    -0.17360000
opls_142-37    C    0.44211989    0.68900007    0.20230000    0.01280000
opls_700-38    C    0.38672016    0.67806017    0.23590000    0.06150000
opls_145-39    C    0.37500007    0.71974003    0.23791905    -0.17270000
opls_182-40    C    0.68919009    0.70660017    0.15680952    0.04160000
opls_136-41    C    0.72289011    0.67974009    0.18973095    -0.27590000
opls_908-42    C    0.69009993    0.62270003    0.31820952    -0.05060000
opls_558-43    C    0.71249008    0.55173007    0.17514048    0.04450000
opls_561-44    C    0.76769008    0.61235007    0.49206905    0.07170000
opls_507-45    C    0.78448992    0.57624999    0.43379048    0.07760000
opls_182-46    C    0.67208024    0.94843029    0.66671905    0.05350000
opls_136-47    C    0.72002032    0.99106036    0.85636905    -0.26290000
opls_908-48    C    0.76230017    0.03395004    0.64086905    -0.05110000
opls_142-49    C    0.85597990    0.07430985    0.84833095    0.03210000
opls_142-50    C    0.81311002    0.11325014    0.99921905    0.06440000
opls_261-51    C    0.88847013    0.11710008    0.03920952    0.19330000
opls_700-52    C    0.16234009    0.89176009    0.77125952    -0.20700000
opls_145-53    C    0.12579017    0.83684011    0.74390000    -0.23860000
opls_166-54    C    0.13624007    0.79793017    0.87164048    0.23210000
opls_700-55    C    0.18524008    0.81488002    0.02833095    -0.21550000
opls_145-56    C    0.22109987    0.86975008    0.06794048    -0.28350000
opls_166-57    C    0.20996023    0.90859012    0.94483095    0.23220000
opls_234-58    C    0.19944989    0.77520002    0.14879048    0.45080000
opls_234-59    C    0.14831993    0.93116010    0.63714048    0.45380000
opls_142-60    C    0.04745018    0.93376028    0.15755952    0.01950000
opls_700-61    C    0.02368001    0.96784013    0.11375000    0.05430000
opls_145-62    C    0.05566015    0.02365998    0.11026905    -0.17360000
opls_142-63    C    0.31100004    0.75312011    0.20230000    0.01280000
opls_700-64    C    0.32194014    0.70865994    0.23590000    0.06150000
opls_145-65    C    0.28025995    0.65526012    0.23791905    -0.17270000
opls_182-66    C    0.29340016    0.98259002    0.15680952    0.04160000
opls_136-67    C    0.32025993    0.04315010    0.18973095    -0.27580000
opls_908-68    C    0.37730015    0.06740001    0.31820952    -0.05060000
opls_558-69    C    0.44827012    0.16076023    0.17514048    0.04450000
opls_561-70    C    0.38765004    0.15534020    0.49206905    0.07170000
opls_507-71    C    0.42374986    0.20823995    0.43379048    0.07760000
opls_182-72    C    0.05157021    0.72365028    0.66671905    0.05350000
opls_136-73    C    0.00894008    0.72896006    0.85636905    -0.26290000
opls_908-74    C    0.96605021    0.72835016    0.64086905    -0.05110000
opls_142-75    C    0.92569011    0.78167009    0.84833095    0.03210000
opls_142-76    C    0.88675017    0.69986009    0.99921905    0.06440000
opls_261-77    C    0.88290018    0.77137005    0.03920952    0.19330000
opls_236-78    O    0.26757015    0.43209014    0.25203095    -0.39640000
opls_236-79    O    0.02365998    0.19292010    0.74520952    -0.39490000
opls_179-80    O    0.03609984    0.27997000    0.99399048    -0.22740000
opls_179-81    O    0.25766990    0.35748992    0.84631905    -0.23630000
opls_236-82    O    0.56790989    0.83548011    0.25203095    -0.39500000
opls_236-83    O    0.80708028    0.83074028    0.74520952    -0.39500000
opls_179-84    O    0.72003010    0.75613008    0.99399048    -0.22740000
opls_179-85    O    0.64250997    0.90018009    0.84631905    -0.23630000
opls_236-86    O    0.16452016    0.73243016    0.25203095    -0.39500000
opls_236-87    O    0.16925994    0.97634002    0.74520952    -0.39500000
opls_179-88    O    0.24387026    0.96390032    0.99399048    -0.22730000
opls_179-89    O    0.09982013    0.74232999    0.84631905    -0.23630000
opls_750-90    N    0.04925006    0.13993008    0.32403095    -0.18430000
opls_238-91    N    0.08287980    0.19385992    0.40116905    -0.27090000
opls_750-92    N    0.25546005    0.51795018    0.20318095    -0.18420000
opls_238-93    N    0.21466013    0.46565993    0.13686905    -0.27680000
opls_557-94    N    0.87433015    0.27754996    0.32734048    -0.05660000
opls_511-95    N    0.78806001    0.25009995    0.23460952    -0.31030000
opls_900-96    N    0.26346996    0.19148022    0.82630000    -0.05600000
opls_750-97    N    0.28004992    0.13829009    0.13464048    -0.32280000
opls_750-98    N    0.86007001    0.90932024    0.32403095    -0.18440000
opls_238-99    N    0.80613994    0.88902012    0.40116905    -0.27090000
opls_750-100    N    0.48205019    0.73751028    0.20318095    -0.18420000
opls_238-101    N    0.53433993    0.74900017    0.13686905    -0.27690000
opls_557-102    N    0.72244993    0.59678018    0.32734048    -0.05660000
opls_511-103    N    0.74990007    0.53795994    0.23460952    -0.31020000
opls_900-104    N    0.80852011    0.07199006    0.82630000    -0.05600000
opls_750-105    N    0.86171026    0.14176019    0.13464048    -0.32280000
opls_750-106    N    0.09068012    0.95075008    0.32403095    -0.18450000
opls_238-107    N    0.11097991    0.91711997    0.40116905    -0.27090000
opls_750-108    N    0.26248996    0.74453994    0.20318095    -0.18420000
opls_238-109    N    0.25100014    0.78534029    0.13686905    -0.27690000
opls_557-110    N    0.40321992    0.12566986    0.32734048    -0.05660000
opls_511-111    N    0.46203993    0.21194011    0.23460952    -0.31030000
opls_900-112    N    0.92801013    0.73653012    0.82630000    -0.05600000
opls_750-113    N    0.85824002    0.71995012    0.13464048    -0.32270000
opls_146-114    H    0.17547996    0.26348985    0.63220952    0.10720000
opls_146-115    H    0.11822986    0.37541993    0.20208095    0.12360000
opls_910-116    H    0.11954995    0.21494009    0.28493095    0.26510000
opls_910-117    H    0.17812984    0.45943989    0.04969048    0.26690000
opls_144-118    H    0.10766003    0.13294995    0.08329048    0.10830000
opls_146-119    H    0.95796020    0.05672013    0.12136905    0.11560000
opls_144-120    H    0.20690002    0.55092007    0.16023095    0.10800000
opls_146-121    H    0.35379016    0.59290029    0.22875000    0.11500000
opls_185-122    H    0.02811989    0.34757012    0.01783095    0.05800000
opls_185-123    H    0.03502004    0.32149010    0.39913095    0.05970000
opls_140-124    H    0.94722006    0.24321009    0.35278095    0.11750000
opls_140-125    H    0.93922006    0.26040000    0.95394048    0.12790000
opls_140-126    H    0.94469001    0.34533021    0.16331905    0.06800000
opls_140-127    H    0.94790014    0.32457995    0.56125000    0.05530000
opls_563-128    H    0.85057990    0.32148011    0.02071905    0.09470000
opls_565-129    H    0.86012005    0.21285996    0.64236905    0.11630000
opls_564-130    H    0.75787008    0.18016008    0.53090952    0.11980000
opls_185-131    H    0.31930004    0.35486019    0.61281905    0.05820000
opls_185-132    H    0.25581015    0.31633009    0.43401905    0.05880000
opls_140-133    H    0.23307026    0.26081019    0.99169048    0.12800000
opls_140-134    H    0.30462987    0.29459008    0.02800000    0.12260000
opls_140-135    H    0.31044991    0.25496000    0.51380952    0.05510000
opls_140-136    H    0.23903001    0.22443013    0.46340000    0.10220000
opls_144-137    H    0.18089015    0.13370005    0.73321905    0.10540000
opls_144-138    H    0.34120006    0.21842017    0.02599048    0.09190000
opls_146-139    H    0.73651020    0.91199032    0.63220952    0.10720000
opls_146-140    H    0.62458007    0.74281008    0.20208095    0.12360000
opls_910-141    H    0.78506009    0.90460998    0.28493095    0.26930000
opls_910-142    H    0.54056014    0.71868998    0.04969048    0.26700000
opls_144-143    H    0.86704992    0.97471002    0.08329048    0.10830000
opls_146-144    H    0.94328005    0.90124014    0.12136905    0.11560000
opls_144-145    H    0.44908006    0.65598026    0.16023095    0.10800000
opls_146-146    H    0.40710027    0.76089027    0.22875000    0.11500000
opls_185-147    H    0.65243001    0.68055010    0.01783095    0.05800000
opls_185-148    H    0.67851006    0.71352997    0.39913095    0.05970000
opls_140-149    H    0.75678984    0.70400998    0.35278095    0.11750000
opls_140-150    H    0.73960002    0.67882025    0.95394048    0.12790000
opls_140-151    H    0.65466996    0.59935998    0.16331905    0.06800000
opls_140-152    H    0.67541991    0.62331992    0.56125000    0.05530000
opls_563-153    H    0.67851999    0.52910018    0.02071905    0.09480000
opls_565-154    H    0.78714000    0.64726029    0.64236905    0.11620000
opls_564-155    H    0.81984025    0.57771024    0.53090952    0.11980000
opls_185-156    H    0.64514026    0.96444033    0.61281905    0.05820000
opls_185-157    H    0.68367026    0.93948026    0.43401905    0.05880000
opls_140-158    H    0.73918985    0.97226002    0.99169048    0.12790000
opls_140-159    H    0.70540984    0.01004003    0.02800000    0.12270000
opls_140-160    H    0.74504002    0.05548994    0.51380952    0.05510000
opls_140-161    H    0.77557021    0.01460011    0.46340000    0.10220000
opls_144-162    H    0.86630002    0.04719015    0.73321905    0.10540000
opls_144-163    H    0.78157996    0.12278012    0.02599048    0.09190000
opls_146-164    H    0.08801003    0.82452024    0.63220952    0.10720000
opls_146-165    H    0.25719008    0.88176999    0.20208095    0.12360000
opls_910-166    H    0.09539016    0.88045033    0.28493095    0.26930000
opls_910-167    H    0.28131002    0.82187014    0.04969048    0.26700000
opls_144-168    H    0.02529004    0.89234003    0.08329048    0.10830000
opls_146-169    H    0.09875995    0.04204013    0.12136905    0.11560000
opls_144-170    H    0.34402012    0.79310007    0.16023095    0.10800000
opls_146-171    H    0.23910996    0.64621024    0.22875000    0.11500000
opls_185-172    H    0.31944995    0.97188018    0.01783095    0.05800000
opls_185-173    H    0.28647011    0.96498033    0.39913095    0.05970000
opls_140-174    H    0.29599010    0.05277993    0.35278095    0.11750000
opls_140-175    H    0.32118012    0.06078016    0.95394048    0.12790000
opls_140-176    H    0.40064023    0.05531021    0.16331905    0.06800000
opls_140-177    H    0.37667995    0.05210013    0.56125000    0.05540000
opls_563-178    H    0.47089996    0.14942011    0.02071905    0.09470000
opls_565-179    H    0.35274015    0.13988015    0.64236905    0.11620000
opls_564-180    H    0.42228988    0.24213008    0.53090952    0.11980000
opls_185-181    H    0.03556010    0.68070028    0.61281905    0.05820000
opls_185-182    H    0.06052014    0.74419005    0.43401905    0.05880000
opls_140-183    H    0.02774008    0.76693019    0.99169048    0.12790000
opls_140-184    H    0.98996014    0.69537029    0.02800000    0.12260000
opls_140-185    H    0.94451007    0.68955006    0.51380952    0.05510000
opls_140-186    H    0.98539999    0.76097016    0.46340000    0.10220000
opls_144-187    H    0.95281003    0.81911020    0.73321905    0.10540000
opls_144-188    H    0.87722019    0.65880011    0.02599048    0.09190000
