#======================================================================
# Crystal Data Generated By AuToFF
#----------------------------------------------------------------------

data_AuToFF_phase_1

_cell_length_a                         32.9518
_cell_length_b                         31.0216
_cell_length_c                         3.6052
_cell_angle_alpha                      90.00
_cell_angle_beta                       90.00
_cell_angle_gamma                      90.00
_symmetry_space_group_name_H-M_alt     'P 1'
_symmetry_space_group_IT_number        1

loop_
_space_group_symop_operation_xyz
   'x, y, z'

loop_
   _atom_site_label
   _atom_site_type_symbol
   _atom_site_fract_x
   _atom_site_fract_y
   _atom_site_fract_z
   _atom_site_charge
opls_147-0    C    0.46402989    0.95591008    0.23388994    -0.00500000
opls_145-1    C    0.42919992    0.02147987    0.23846943    -0.21880000
opls_145-2    C    0.46393004    0.08805993    0.23159880    0.02280000
opls_145-3    C    0.42787010    0.11431003    0.19776989    0.03270000
opls_145-4    C    0.42504992    0.15220008    0.36624875    -0.22350000
opls_145-5    C    0.39246991    0.17790991    0.32767114    -0.22350000
opls_145-6    C    0.36138997    0.16589989    0.12562132    -0.03180000
opls_145-7    C    0.36413003    0.12846984    0.95474870    -0.22380000
opls_145-8    C    0.39755006    0.10378994    0.98124099    -0.22380000
opls_572-9    C    0.32645015    0.19238015    0.08689948    0.38730000
opls_507-10    C    0.78664989    0.25673015    0.87828969    0.09220000
opls_145-11    C    0.76852008    0.21894003    0.80442971    -0.29890000
opls_575-12    C    0.26902992    0.78648007    0.93474981    0.14070000
opls_147-13    C    0.53597011    0.04408992    0.23388994    -0.00500000
opls_145-14    C    0.57080008    0.97852013    0.23846943    -0.21880000
opls_145-15    C    0.53606996    0.91194007    0.23159880    0.02280000
opls_145-16    C    0.57212990    0.88568997    0.19776989    0.03270000
opls_145-17    C    0.57495008    0.84779992    0.36624875    -0.22350000
opls_145-18    C    0.60753009    0.82209009    0.32767114    -0.22350000
opls_145-19    C    0.63861003    0.83410011    0.12562132    -0.03180000
opls_145-20    C    0.63586997    0.87153016    0.95474870    -0.22380000
opls_145-21    C    0.60244994    0.89621006    0.98124099    -0.22380000
opls_572-22    C    0.67354985    0.80761985    0.08689948    0.38730000
opls_507-23    C    0.21335011    0.74326985    0.87828969    0.09220000
opls_145-24    C    0.23147992    0.78105997    0.80442971    -0.29890000
opls_575-25    C    0.73097008    0.21351993    0.93474981    0.14070000
opls_147-26    C    0.03597011    0.45591008    0.76611006    -0.00500000
opls_145-27    C    0.07080008    0.52147987    0.76153057    -0.21880000
opls_145-28    C    0.03606996    0.58805993    0.76840120    0.02280000
opls_145-29    C    0.07212990    0.61431003    0.80223011    0.03270000
opls_145-30    C    0.07495008    0.65220008    0.63375125    -0.22350000
opls_145-31    C    0.10753009    0.67790991    0.67232886    -0.22350000
opls_145-32    C    0.13861003    0.66589989    0.87437868    -0.03180000
opls_145-33    C    0.13586997    0.62846984    0.04525130    -0.22380000
opls_145-34    C    0.10244994    0.60378994    0.01875901    -0.22380000
opls_572-35    C    0.17354985    0.69238015    0.91310052    0.38730000
opls_507-36    C    0.71335011    0.75673015    0.12171031    0.09220000
opls_145-37    C    0.73147992    0.71894003    0.19557029    -0.29890000
opls_575-38    C    0.23097008    0.28648007    0.06525019    0.14070000
opls_147-39    C    0.96402989    0.54408992    0.76611006    -0.00500000
opls_145-40    C    0.92919992    0.47852013    0.76153057    -0.21880000
opls_145-41    C    0.96393004    0.41194007    0.76840120    0.02280000
opls_145-42    C    0.92787010    0.38568997    0.80223011    0.03270000
opls_145-43    C    0.92504992    0.34779992    0.63375125    -0.22350000
opls_145-44    C    0.89246991    0.32209009    0.67232886    -0.22350000
opls_145-45    C    0.86138997    0.33410011    0.87437868    -0.03180000
opls_145-46    C    0.86413003    0.37153016    0.04525130    -0.22380000
opls_145-47    C    0.89755006    0.39621006    0.01875901    -0.22380000
opls_572-48    C    0.82645015    0.30761985    0.91310052    0.38730000
opls_507-49    C    0.28664989    0.24326985    0.12171031    0.09220000
opls_145-50    C    0.26852008    0.28105997    0.19557029    -0.29890000
opls_575-51    C    0.76902992    0.71351993    0.06525019    0.14070000
opls_147-52    C    0.03597011    0.54408992    0.76611006    -0.00500000
opls_145-53    C    0.07080008    0.47852013    0.76153057    -0.21880000
opls_145-54    C    0.03606996    0.41194007    0.76840120    0.02280000
opls_145-55    C    0.07212990    0.38568997    0.80223011    0.03270000
opls_145-56    C    0.07495008    0.34779992    0.63375125    -0.22350000
opls_145-57    C    0.10753009    0.32209009    0.67232886    -0.22350000
opls_145-58    C    0.13861003    0.33410011    0.87437868    -0.03180000
opls_145-59    C    0.13586997    0.37153016    0.04525130    -0.22380000
opls_145-60    C    0.10244994    0.39621006    0.01875901    -0.22380000
opls_572-61    C    0.17354985    0.30761985    0.91310052    0.38730000
opls_507-62    C    0.71335011    0.24326985    0.12171031    0.09220000
opls_145-63    C    0.73147992    0.28105997    0.19557029    -0.29890000
opls_575-64    C    0.23097008    0.71351993    0.06525019    0.14070000
opls_147-65    C    0.96402989    0.45591008    0.76611006    -0.00500000
opls_145-66    C    0.92919992    0.52147987    0.76153057    -0.21880000
opls_145-67    C    0.96393004    0.58805993    0.76840120    0.02280000
opls_145-68    C    0.92787010    0.61431003    0.80223011    0.03270000
opls_145-69    C    0.92504992    0.65220008    0.63375125    -0.22350000
opls_145-70    C    0.89246991    0.67790991    0.67232886    -0.22350000
opls_145-71    C    0.86138997    0.66589989    0.87437868    -0.03180000
opls_145-72    C    0.86413003    0.62846984    0.04525130    -0.22380000
opls_145-73    C    0.89755006    0.60378994    0.01875901    -0.22380000
opls_572-74    C    0.82645015    0.69238015    0.91310052    0.38730000
opls_507-75    C    0.28664989    0.75673015    0.12171031    0.09220000
opls_145-76    C    0.26852008    0.71894003    0.19557029    -0.29890000
opls_575-77    C    0.76902992    0.28648007    0.06525019    0.14070000
opls_147-78    C    0.46402989    0.04408992    0.23388994    -0.00500000
opls_145-79    C    0.42919992    0.97852013    0.23846943    -0.21880000
opls_145-80    C    0.46393004    0.91194007    0.23159880    0.02280000
opls_145-81    C    0.42787010    0.88568997    0.19776989    0.03270000
opls_145-82    C    0.42504992    0.84779992    0.36624875    -0.22350000
opls_145-83    C    0.39246991    0.82209009    0.32767114    -0.22350000
opls_145-84    C    0.36138997    0.83410011    0.12562132    -0.03180000
opls_145-85    C    0.36413003    0.87153016    0.95474870    -0.22380000
opls_145-86    C    0.39755006    0.89621006    0.98124099    -0.22380000
opls_572-87    C    0.32645015    0.80761985    0.08689948    0.38730000
opls_507-88    C    0.78664989    0.74326985    0.87828969    0.09220000
opls_145-89    C    0.76852008    0.78105997    0.80442971    -0.29890000
opls_575-90    C    0.26902992    0.21351993    0.93474981    0.14070000
opls_147-91    C    0.53597011    0.95591008    0.23388994    -0.00500000
opls_145-92    C    0.57080008    0.02147987    0.23846943    -0.21880000
opls_145-93    C    0.53606996    0.08805993    0.23159880    0.02280000
opls_145-94    C    0.57212990    0.11431003    0.19776989    0.03270000
opls_145-95    C    0.57495008    0.15220008    0.36624875    -0.22350000
opls_145-96    C    0.60753009    0.17790991    0.32767114    -0.22350000
opls_145-97    C    0.63861003    0.16589989    0.12562132    -0.03180000
opls_145-98    C    0.63586997    0.12846984    0.95474870    -0.22380000
opls_145-99    C    0.60244994    0.10378994    0.98124099    -0.22380000
opls_572-100    C    0.67354985    0.19238015    0.08689948    0.38730000
opls_507-101    C    0.21335011    0.25673015    0.87828969    0.09220000
opls_145-102    C    0.23147992    0.21894003    0.80442971    -0.29890000
opls_575-103    C    0.73097008    0.78648007    0.93474981    0.14070000
opls_145-104    C    0.50000000    0.10849988    0.23065017    -0.13810000
opls_145-105    C    0.50000000    0.97789991    0.23352103    0.00520000
opls_145-106    C    0.50000000    0.89150012    0.23065017    -0.13810000
opls_145-107    C    0.50000000    0.02210009    0.23352103    0.00520000
opls_145-108    C    0.00000000    0.60849988    0.76934983    -0.13810000
opls_145-109    C    0.00000000    0.47789991    0.76647897    0.00520000
opls_145-110    C    0.00000000    0.39150012    0.76934983    -0.13810000
opls_145-111    C    0.00000000    0.52210009    0.76647897    0.00520000
opls_573-112    N    0.32381994    0.22901011    0.21911961    -0.36300000
opls_573-113    N    0.67618006    0.77098989    0.21911961    -0.36300000
opls_573-114    N    0.17618006    0.72901011    0.78088039    -0.36280000
opls_573-115    N    0.82381994    0.27098989    0.78088039    -0.36300000
opls_573-116    N    0.17618006    0.27098989    0.78088039    -0.36300000
opls_573-117    N    0.82381994    0.72901011    0.78088039    -0.36300000
opls_573-118    N    0.32381994    0.77098989    0.21911961    -0.36300000
opls_573-119    N    0.67618006    0.22901011    0.21911961    -0.36290000
opls_180-120    O    0.79368987    0.67970994    0.09755076    -0.23140000
opls_180-121    O    0.20631013    0.32029006    0.09755076    -0.23140000
opls_180-122    O    0.70631013    0.17970994    0.90244924    -0.23140000
opls_180-123    O    0.29368987    0.82029006    0.90244924    -0.23140000
opls_180-124    O    0.70631013    0.82029006    0.90244924    -0.23140000
opls_180-125    O    0.29368987    0.17970994    0.90244924    -0.23140000
opls_180-126    O    0.79368987    0.32029006    0.09755076    -0.23140000
opls_180-127    O    0.20631013    0.67970994    0.09755076    -0.23140000
opls_146-128    H    0.40118992    0.03612999    0.27518862    0.22080000
opls_146-129    H    0.44784989    0.16168992    0.53337124    0.22000000
opls_146-130    H    0.39124995    0.20668985    0.46244036    0.22090000
opls_146-131    H    0.34109002    0.11898000    0.78995895    0.22060000
opls_146-132    H    0.39987011    0.07689997    0.82572950    0.22060000
opls_146-133    H    0.78244011    0.19563014    0.65510097    0.22090000
opls_146-134    H    0.59881008    0.96387001    0.27518862    0.22080000
opls_146-135    H    0.55215011    0.83831008    0.53337124    0.22000000
opls_146-136    H    0.60875005    0.79331015    0.46244036    0.22100000
opls_146-137    H    0.65890998    0.88102000    0.78995895    0.22060000
opls_146-138    H    0.60012989    0.92310003    0.82572950    0.22060000
opls_146-139    H    0.21755989    0.80436986    0.65510097    0.22090000
opls_146-140    H    0.09881008    0.53612999    0.72481138    0.22080000
opls_146-141    H    0.05215011    0.66168992    0.46662876    0.22000000
opls_146-142    H    0.10875005    0.70668985    0.53755964    0.22090000
opls_146-143    H    0.15890998    0.61898000    0.21004105    0.22060000
opls_146-144    H    0.10012989    0.57689997    0.17427050    0.22060000
opls_146-145    H    0.71755989    0.69563014    0.34489903    0.22090000
opls_146-146    H    0.90118992    0.46387001    0.72481138    0.22080000
opls_146-147    H    0.94784989    0.33831008    0.46662876    0.22000000
opls_146-148    H    0.89124995    0.29331015    0.53755964    0.22090000
opls_146-149    H    0.84109002    0.38102000    0.21004105    0.22060000
opls_146-150    H    0.89987011    0.42310003    0.17427050    0.22060000
opls_146-151    H    0.28244011    0.30436986    0.34489903    0.22090000
opls_146-152    H    0.09881008    0.46387001    0.72481138    0.22080000
opls_146-153    H    0.05215011    0.33831008    0.46662876    0.22000000
opls_146-154    H    0.10875005    0.29331015    0.53755964    0.22090000
opls_146-155    H    0.15890998    0.38102000    0.21004105    0.22060000
opls_146-156    H    0.10012989    0.42310003    0.17427050    0.22060000
opls_146-157    H    0.71755989    0.30436986    0.34489903    0.22090000
opls_146-158    H    0.90118992    0.53612999    0.72481138    0.22080000
opls_146-159    H    0.94784989    0.66168992    0.46662876    0.22000000
opls_146-160    H    0.89124995    0.70668985    0.53755964    0.22090000
opls_146-161    H    0.84109002    0.61898000    0.21004105    0.22060000
opls_146-162    H    0.89987011    0.57689997    0.17427050    0.22060000
opls_146-163    H    0.28244011    0.69563014    0.34489903    0.22090000
opls_146-164    H    0.40118992    0.96387001    0.27518862    0.22080000
opls_146-165    H    0.44784989    0.83831008    0.53337124    0.22000000
opls_146-166    H    0.39124995    0.79331015    0.46244036    0.22090000
opls_146-167    H    0.34109002    0.88102000    0.78995895    0.22060000
opls_146-168    H    0.39987011    0.92310003    0.82572950    0.22060000
opls_146-169    H    0.78244011    0.80436986    0.65510097    0.22090000
opls_146-170    H    0.59881008    0.03612999    0.27518862    0.22080000
opls_146-171    H    0.55215011    0.16168992    0.53337124    0.22000000
opls_146-172    H    0.60875005    0.20668985    0.46244036    0.22090000
opls_146-173    H    0.65890998    0.11898000    0.78995895    0.22060000
opls_146-174    H    0.60012989    0.07689997    0.82572950    0.22060000
opls_146-175    H    0.21755989    0.19563014    0.65510097    0.22090000
opls_146-176    H    0.50000000    0.14190016    0.20419949    0.22080000
opls_146-177    H    0.50000000    0.85809984    0.20419949    0.22080000
opls_146-178    H    0.00000000    0.64190016    0.79580051    0.22080000
opls_146-179    H    0.00000000    0.35809984    0.79580051    0.22080000
