#======================================================================
# Crystal Data Generated By AuToFF
#----------------------------------------------------------------------

data_AuToFF_phase_1

_cell_length_a                         46.1508
_cell_length_b                         46.9811
_cell_length_c                         4.4878
_cell_angle_alpha                      82.00
_cell_angle_beta                       89.00
_cell_angle_gamma                      60.00
_symmetry_space_group_name_H-M_alt     'P 1'
_symmetry_space_group_IT_number        1

loop_
_space_group_symop_operation_xyz
   'x, y, z'

loop_
   _atom_site_label
   _atom_site_type_symbol
   _atom_site_fract_x
   _atom_site_fract_y
   _atom_site_fract_z
   _atom_site_charge
opls_700-0    C    0.29270001    0.14219992    0.08089885    0.07760000
opls_145-1    C    0.30940003    0.12700002    0.84129976    -0.21820000
opls_145-2    C    0.33479994    0.13110015    0.71769941    -0.21810000
opls_700-3    C    0.34570003    0.14950016    0.84749916    0.07730000
opls_145-4    C    0.32820007    0.16579992    0.07919908    -0.21870000
opls_145-5    C    0.30270006    0.16200001    0.19969972    -0.21800000
opls_700-6    C    0.26560006    0.13799991    0.20520029    0.07720000
opls_145-7    C    0.25549985    0.11830011    0.08520011    -0.21810000
opls_145-8    C    0.22969997    0.11489998    0.20300006    -0.21820000
opls_700-9    C    0.21210005    0.13120008    0.43399889    0.07830000
opls_145-10    C    0.22320004    0.14930006    0.56599886    -0.21810000
opls_145-11    C    0.24879998    0.15319995    0.44459874    -0.21820000
opls_141-12    C    0.37670003    0.14880010    0.76079993    0.04420000
opls_141-13    C    0.18059997    0.13250011    0.51540045    0.04420000
opls_142-14    C    0.39130005    0.15980016    0.93929994    -0.22230000
opls_142-15    C    0.16620004    0.12160006    0.33520067    -0.11160000
opls_423-16    C    0.16400007    0.14980002    0.74719956    0.26840000
opls_423-17    C    0.39320008    0.13200007    0.52639932    0.26840000
opls_700-18    C    0.42189986    0.16080019    0.91840006    0.09750000
opls_145-19    C    0.44709997    0.14540013    0.72650031    -0.21810000
opls_145-20    C    0.42700005    0.17719996    0.12629878    -0.21870000
opls_145-21    C    0.47600002    0.14670007    0.74479870    -0.21790000
opls_145-22    C    0.45570001    0.17839996    0.14360075    -0.21820000
opls_700-23    C    0.48069995    0.16330006    0.95089846    0.07760000
opls_700-24    C    0.13460006    0.12250000    0.33500003    0.09800000
opls_145-25    C    0.10780003    0.14030014    0.50529880    -0.21820000
opls_145-26    C    0.12999995    0.10690009    0.11640002    -0.21820000
opls_145-27    C    0.07720002    0.14410001    0.43639975    -0.21810000
opls_145-28    C    0.09969992    0.11039997    0.05060067    -0.21880000
opls_700-29    C    0.07250000    0.13000009    0.20740051    0.07820000
opls_141-30    C    0.04010011    0.13409996    0.12750033    0.01510000
opls_141-31    C    0.01210003    0.16349987    0.05709990    0.02230000
opls_145-32    C    0.97949991    0.63580015    0.89849884    0.07950000
opls_145-33    C    0.96329993    0.63460006    0.65300017    -0.21850000
opls_145-34    C    0.99610004    0.60769987    0.10830021    -0.21850000
opls_145-35    C    0.96319997    0.60629993    0.60829909    -0.21870000
opls_145-36    C    0.99590015    0.57959985    0.06540033    -0.21870000
opls_700-37    C    0.97890006    0.57849995    0.82299911    0.09520000
opls_142-38    C    0.97620008    0.54910016    0.83529873    -0.08750000
opls_141-39    C    0.96400014    0.53849994    0.63180046    0.03930000
opls_145-40    C    0.96680002    0.50569999    0.68519875    0.07820000
opls_423-41    C    0.94650001    0.55769987    0.36759988    0.26440000
opls_145-42    C    0.95230004    0.49660002    0.47999847    -0.21870000
opls_145-43    C    0.98400006    0.48300014    0.93400001    -0.21830000
opls_145-44    C    0.95489999    0.46610007    0.52100020    -0.21880000
opls_145-45    C    0.98629995    0.45260007    0.97629799    -0.21800000
opls_145-46    C    0.97190010    0.44359994    0.76999984    0.08010000
opls_700-47    C    0.97410004    0.41100016    0.82359877    0.07760000
opls_145-48    C    0.99109991    0.38730017    0.64009865    -0.21800000
opls_145-49    C    0.95949994    0.40349994    0.06760056    -0.21830000
opls_145-50    C    0.99410007    0.35660004    0.70499852    -0.21820000
opls_145-51    C    0.96210000    0.37309995    0.13089986    -0.21810000
opls_700-52    C    0.97980007    0.34890010    0.95119829    0.07760000
opls_141-53    C    0.98230000    0.31650002    0.02629900    0.04060000
opls_142-54    C    0.99689998    0.29219998    0.85100013    -0.08440000
opls_423-55    C    0.96750005    0.31209991    0.28460000    0.26470000
opls_700-56    C    0.00150015    0.25919998    0.92819963    0.09550000
opls_145-57    C    0.97599994    0.25399992    0.03209939    -0.21850000
opls_145-58    C    0.03149997    0.23210000    0.87940017    -0.21830000
opls_145-59    C    0.98010003    0.22300000    0.07669903    -0.21840000
opls_145-60    C    0.03590009    0.20100012    0.93409920    -0.21830000
opls_700-61    C    0.00999991    0.19569999    0.02879905    0.07760000
opls_700-62    C    0.04010006    0.10320006    0.11419979    0.07950000
opls_145-63    C    0.02469999    0.10000003    0.87359978    -0.21860000
opls_145-64    C    0.05600004    0.07629992    0.33690043    -0.21830000
opls_145-65    C    0.02219998    0.07250011    0.86089889    -0.21870000
opls_145-66    C    0.05350003    0.04870006    0.32520047    -0.21830000
opls_700-67    C    0.03549997    0.04670001    0.09600060    0.09500000
opls_142-68    C    0.03000002    0.01890004    0.13039940    -0.08750000
opls_141-69    C    0.01559995    0.00950014    0.93419839    0.03880000
opls_145-70    C    0.01340013    0.97929988    0.00319889    0.07840000
opls_423-71    C    0.99979996    0.02869999    0.66449951    0.26430000
opls_145-72    C    0.02779991    0.95720005    0.26170053    -0.21850000
opls_145-73    C    0.99580001    0.97250003    0.80569939    -0.21810000
opls_145-74    C    0.02479997    0.92949991    0.32160030    -0.21940000
opls_145-75    C    0.99320001    0.94470012    0.86439986    -0.21860000
opls_145-76    C    0.00770004    0.92259999    0.12149931    0.07950000
opls_700-77    C    0.00550010    0.89230002    0.17400037    0.07850000
opls_145-78    C    0.98860003    0.88659986    0.40869855    -0.21790000
opls_145-79    C    0.02000021    0.86899991    0.98300011    -0.21810000
opls_145-80    C    0.98639998    0.85849998    0.45179907    -0.21810000
opls_145-81    C    0.01810012    0.84059982    0.02800102    -0.21790000
opls_700-82    C    0.00120012    0.83479984    0.26310047    0.07730000
opls_141-83    C    0.99870016    0.80459990    0.31759887    0.04420000
opls_142-84    C    0.01120009    0.78179997    0.12750033    -0.22500000
opls_423-85    C    0.98120006    0.80269994    0.56599886    0.27180000
opls_700-86    C    0.01349994    0.74990004    0.14009978    0.09800000
opls_145-87    C    0.99689993    0.73809998    0.33550049    -0.21800000
opls_145-88    C    0.03050002    0.73210015    0.91399961    -0.21810000
opls_145-89    C    0.99520007    0.71100000    0.27999892    -0.21810000
opls_145-90    C    0.02900000    0.70490000    0.86079970    -0.21820000
opls_700-91    C    0.01030005    0.69469995    0.04239942    0.07760000
opls_141-92    C    0.00820012    0.66610000    0.97819839    0.02310000
opls_141-93    C    0.97919991    0.66640015    0.93749873    0.02350000
opls_145-94    C    0.98039996    0.16440004    0.99860006    0.07760000
opls_145-95    C    0.96150010    0.18070009    0.73540040    -0.21800000
opls_145-96    C    0.96909999    0.14830003    0.20889964    -0.21880000
opls_145-97    C    0.93230005    0.18099999    0.67629866    -0.21810000
opls_145-98    C    0.94010006    0.14879998    0.15189893    -0.21820000
opls_145-99    C    0.92079996    0.16540015    0.89000002    0.09440000
opls_142-100    C    0.88880011    0.16720012    0.88599859    -0.10110000
opls_141-101    C    0.86379985    0.17920018    0.67179902    0.03930000
opls_700-102    C    0.83270003    0.17930003    0.74809904    0.07820000
opls_423-103    C    0.86430012    0.19589999    0.39669876    0.26430000
opls_145-104    C    0.83020005    0.16349997    0.01940075    -0.21880000
opls_145-105    C    0.80410002    0.19780000    0.56179904    -0.21820000
opls_145-106    C    0.80030005    0.16769989    0.11809978    -0.21860000
opls_145-107    C    0.77400003    0.20230015    0.66199945    -0.21830000
opls_700-108    C    0.77119998    0.18760010    0.93889867    0.07690000
opls_700-109    C    0.73939995    0.19199999    0.04079884    0.07950000
opls_145-110    C    0.73699993    0.17720006    0.31839916    -0.21800000
opls_145-111    C    0.71010010    0.21140011    0.86219964    -0.21790000
opls_145-112    C    0.70720015    0.18099995    0.41979887    -0.21810000
opls_145-113    C    0.68050006    0.21480013    0.96149832    -0.21870000
opls_700-114    C    0.67840002    0.19890001    0.23360032    0.07820000
opls_141-115    C    0.64819992    0.19750001    0.31219975    0.03930000
opls_142-116    C    0.62299994    0.20839995    0.10169954    -0.10890000
opls_423-117    C    0.64879990    0.18030016    0.58829868    0.26430000
opls_145-118    C    0.59239988    0.20720010    0.10759912    0.09620000
opls_145-119    C    0.58410008    0.18940005    0.32919965    -0.21820000
opls_145-120    C    0.57169999    0.22250015    0.85159978    -0.21850000
opls_145-121    C    0.55730009    0.18539995    0.27959990    -0.21860000
opls_145-122    C    0.54470008    0.21890006    0.80429946    -0.21800000
opls_145-123    C    0.53780009    0.19929988    0.01789937    0.07690000
opls_141-124    C    0.50920004    0.19490011    0.96909991    0.02170000
opls_141-125    C    0.51140002    0.16520003    0.97229881    0.02250000
opls_700-126    C    0.94620007    0.69560013    0.93309828    0.07850000
opls_145-127    C    0.94019993    0.72730008    0.84029883    -0.21850000
opls_145-128    C    0.91930007    0.69190003    0.02239901    -0.21890000
opls_145-129    C    0.90920002    0.75410004    0.84469928    -0.21870000
opls_145-130    C    0.88840009    0.71869996    0.03470088    -0.21850000
opls_700-131    C    0.88280007    0.75030009    0.94469906    0.09590000
opls_142-132    C    0.85030012    0.77869993    0.97049985    -0.22450000
opls_141-133    C    0.83399998    0.80459998    0.74779921    0.04160000
opls_700-134    C    0.80299990    0.83390009    0.79979982    0.07690000
opls_423-135    C    0.84990003    0.80519996    0.48599949    0.26710000
opls_145-136    C    0.78619994    0.83430000    0.05590059    -0.21850000
opls_145-137    C    0.79190017    0.86329988    0.60679996    -0.21810000
opls_145-138    C    0.76080002    0.86299998    0.13670025    -0.21800000
opls_145-139    C    0.76699999    0.89230004    0.69149960    -0.21870000
opls_700-140    C    0.75070002    0.89289991    0.95279886    0.07950000
opls_700-141    C    0.72450005    0.92379979    0.03560036    0.07950000
opls_145-142    C    0.70790012    0.92499994    0.29540049    -0.21860000
opls_145-143    C    0.71530019    0.95359991    0.85249926    -0.21810000
opls_145-144    C    0.68349997    0.95430002    0.38019933    -0.21820000
opls_145-145    C    0.69079994    0.98270010    0.93429984    -0.21820000
opls_700-146    C    0.67360014    0.98369988    0.18939969    0.07850000
opls_141-147    C    0.64390006    0.01430010    0.24170012    0.03980000
opls_142-148    C    0.62989998    0.04050006    0.01830064    -0.10990000
opls_423-149    C    0.62720013    0.01549996    0.50139881    0.26840000
opls_700-150    C    0.60009997    0.07189991    0.03330095    0.09520000
opls_145-151    C    0.57070010    0.07480004    0.13929949    -0.21810000
opls_145-152    C    0.60040005    0.10040014    0.91729995    -0.21810000
opls_145-153    C    0.54250009    0.10499990    0.12169994    -0.21840000
opls_145-154    C    0.57260003    0.13060014    0.90859824    -0.21840000
opls_700-155    C    0.54259997    0.13369986    0.00350097    0.07770000
opls_700-156    C    0.04049996    0.63670013    0.96039820    0.07950000
opls_145-157    C    0.06650017    0.62959987    0.15789996    -0.21850000
opls_145-158    C    0.04689989    0.61660013    0.74369859    -0.21850000
opls_145-159    C    0.09710013    0.60219990    0.14970096    -0.21850000
opls_145-160    C    0.07750002    0.58920010    0.73579942    -0.21820000
opls_700-161    C    0.10289994    0.58060008    0.94739974    0.09620000
opls_142-162    C    0.13309996    0.54939999    0.94269947    -0.09990000
opls_141-163    C    0.15889998    0.53239989    0.15209957    0.03990000
opls_700-164    C    0.18730008    0.50079993    0.10119908    0.07850000
opls_423-165    C    0.16180014    0.54689997    0.38870040    0.27180000
opls_145-166    C    0.18619995    0.48460014    0.87269805    -0.21880000
opls_145-167    C    0.21730012    0.48789997    0.26489942    -0.21820000
opls_145-168    C    0.21410000    0.45840012    0.78629864    -0.21810000
opls_145-169    C    0.24549998    0.46179990    0.17499904    -0.21880000
opls_700-170    C    0.24479998    0.44640020    0.93869803    0.08010000
opls_700-171    C    0.27479991    0.41880014    0.84969939    0.07950000
opls_145-172    C    0.27429998    0.40320003    0.61409947    -0.21790000
opls_145-173    C    0.30530003    0.40720003    0.00199959    -0.21860000
opls_145-174    C    0.30270004    0.37729999    0.52460036    -0.21820000
opls_145-175    C    0.33350015    0.38109998    0.91590001    -0.21790000
opls_700-176    C    0.33270003    0.36469999    0.68799863    0.07850000
opls_141-177    C    0.36139993    0.33320013    0.63929836    0.04010000
opls_142-178    C    0.38719989    0.31700020    0.84979858    -0.10110000
opls_423-179    C    0.35920003    0.31809999    0.40510064    0.26470000
opls_700-180    C    0.41740006    0.28570019    0.86029924    0.09490000
opls_145-181    C    0.42450008    0.26270010    0.66919978    -0.21840000
opls_145-182    C    0.44130004    0.27820010    0.08409999    -0.21830000
opls_145-183    C    0.45389997    0.23350005    0.70299893    -0.21860000
opls_145-184    C    0.47080012    0.24919993    0.11509927    -0.21880000
opls_700-185    C    0.47749989    0.22600018    0.92759997    0.07950000
opls_146-186    H    0.30289995    0.11130017    0.74479870    0.20590000
opls_146-187    H    0.34939996    0.11599998    0.55539900    0.20590000
opls_146-188    H    0.33510002    0.18090007    0.18109926    0.20610000
opls_146-189    H    0.28840003    0.17719994    0.36189869    0.21030000
opls_146-190    H    0.26969993    0.10310004    0.92269906    0.21030000
opls_146-191    H    0.22270008    0.10000000    0.09880047    0.20590000
opls_146-192    H    0.20860011    0.16439999    0.72869828    0.09400000
opls_146-193    H    0.25550007    0.16870008    0.54289875    0.09400000
opls_144-194    H    0.37549998    0.17520011    0.09599834    0.20930000
opls_144-195    H    0.18220013    0.10619993    0.18019978    0.09400000
opls_146-196    H    0.44489996    0.13140007    0.56959902    0.09370000
opls_146-197    H    0.40820004    0.18860000    0.28209995    0.20930000
opls_146-198    H    0.49510002    0.13480010    0.59319959    0.07670000
opls_146-199    H    0.45879990    0.19130010    0.30660000    0.20590000
opls_146-200    H    0.11000008    0.15350001    0.66979943    0.21040000
opls_146-201    H    0.15049999    0.09330007    0.98270028    0.20930000
opls_146-202    H    0.05650012    0.15779997    0.56659851    0.09400000
opls_146-203    H    0.09700011    0.09739996    0.88660049    0.07450000
opls_146-204    H    0.95140011    0.65599994    0.48779844    0.21000000
opls_146-205    H    0.01069995    0.60740001    0.29019976    0.21110000
opls_146-206    H    0.94809991    0.60700006    0.42869896    0.21110000
opls_146-207    H    0.00740012    0.55849996    0.23489881    0.21080000
opls_144-208    H    0.99050011    0.53100009    0.02289947    0.21110000
opls_146-209    H    0.93839999    0.51360010    0.28639896    0.21010000
opls_146-210    H    0.99590016    0.48859999    0.09969995    0.09370000
opls_146-211    H    0.94289996    0.46010001    0.35929944    0.09400000
opls_146-212    H    0.99970010    0.43550012    0.17189934    0.21120000
opls_146-213    H    0.00300005    0.39239993    0.45039913    0.21080000
opls_146-214    H    0.94580018    0.42169986    0.21109986    0.07670000
opls_146-215    H    0.00750010    0.33890007    0.55739859    0.09370000
opls_146-216    H    0.94979994    0.36820000    0.31770031    0.09370000
opls_144-217    H    0.01240001    0.29470002    0.68110038    0.20930000
opls_146-218    H    0.95240005    0.27459993    0.06540033    0.21110000
opls_146-219    H    0.05150006    0.23549996    0.79670011    0.07450000
opls_146-220    H    0.95949992    0.21989999    0.14670045    0.09400000
opls_146-221    H    0.05940004    0.18080020    0.89369938    0.21080000
opls_146-222    H    0.01520010    0.11940005    0.68769880    0.21080000
opls_146-223    H    0.07059990    0.07690011    0.51419889    0.21030000
opls_146-224    H    0.00809987    0.07230015    0.67829825    0.21080000
opls_146-225    H    0.06450003    0.02869999    0.50629972    0.21110000
opls_144-226    H    0.04340001    0.00100013    0.32190013    0.21110000
opls_146-227    H    0.04130011    0.96150002    0.42329984    0.09370000
opls_146-228    H    0.98350006    0.98959990    0.60749880    0.21080000
opls_146-229    H    0.03670017    0.91249992    0.52199887    0.21110000
opls_146-230    H    0.97950003    0.94010007    0.70700037    0.09400000
opls_146-231    H    0.97660015    0.90459987    0.55750004    0.07670000
opls_146-232    H    0.03330005    0.87279999    0.79869970    0.20510000
opls_146-233    H    0.97250011    0.85520005    0.63320040    0.07670000
opls_146-234    H    0.03000012    0.82319987    0.87440007    0.09400000
opls_144-235    H    0.02550015    0.78579981    0.95349996    0.20930000
opls_146-236    H    0.98200005    0.75249989    0.50019951    0.21030000
opls_146-237    H    0.04319989    0.74120011    0.76279952    0.21080000
opls_146-238    H    0.98200007    0.70199987    0.42630035    0.20930000
opls_146-239    H    0.04370007    0.69049990    0.69489913    0.20590000
opls_146-240    H    0.97040000    0.19240010    0.56830053    0.21030000
opls_146-241    H    0.98390007    0.13430009    0.40859936    0.21000000
opls_146-242    H    0.91740009    0.19540009    0.47709940    0.21000000
opls_146-243    H    0.93120007    0.13710008    0.32169949    0.09160000
opls_144-244    H    0.88690009    0.15240000    0.07880007    0.20440000
opls_146-245    H    0.85150010    0.14849995    0.16909946    0.21000000
opls_146-246    H    0.80460012    0.21220000    0.35950008    0.21110000
opls_146-247    H    0.80039999    0.15299990    0.32020036    0.21080000
opls_146-248    H    0.75240004    0.21750000    0.51559883    0.21000000
opls_146-249    H    0.75860007    0.16230012    0.46489897    0.21000000
opls_146-250    H    0.70980016    0.22609998    0.65949940    0.21080000
opls_146-251    H    0.70699996    0.16640000    0.62229847    0.20440000
opls_146-252    H    0.65899999    0.22930003    0.81230007    0.21000000
opls_144-253    H    0.62359994    0.22390005    0.90690073    0.09370000
opls_146-254    H    0.59989995    0.17650013    0.52710041    0.21020000
opls_146-255    H    0.57800000    0.23619998    0.67849889    0.21090000
opls_146-256    H    0.55080003    0.17169998    0.44830035    0.21110000
opls_146-257    H    0.52860006    0.23160001    0.60779863    0.21010000
opls_146-258    H    0.96000005    0.73150001    0.76419945    0.21080000
opls_146-259    H    0.92269991    0.66769998    0.08850044    0.07450000
opls_146-260    H    0.90570009    0.77819998    0.77809965    0.21080000
opls_146-261    H    0.86829995    0.71510007    0.11259922    0.09410000
opls_144-262    H    0.83590003    0.77510007    0.14629918    0.09160000
opls_146-263    H    0.79360009    0.81190004    0.20559930    0.21110000
opls_146-264    H    0.80650005    0.86439987    0.42300002    0.09400000
opls_146-265    H    0.74670016    0.86139992    0.32229914    0.20590000
opls_146-266    H    0.76070000    0.91469995    0.54789885    0.21010000
opls_146-267    H    0.71350020    0.90269987    0.43779968    0.21080000
opls_146-268    H    0.72969993    0.95480007    0.66809967    0.20590000
opls_146-269    H    0.66870004    0.95389997    0.56349881    0.21030000
opls_146-270    H    0.68460007    0.00479988    0.78610026    0.20980000
opls_144-271    H    0.64569993    0.04160003    0.84530119    0.07670000
opls_146-272    H    0.56949985    0.05310012    0.22669982    0.21090000
opls_146-273    H    0.62290003    0.09880012    0.83319995    0.21070000
opls_146-274    H    0.52000000    0.10650007    0.20070065    0.20440000
opls_146-275    H    0.57440011    0.15180007    0.82109871    0.21110000
opls_146-276    H    0.06299998    0.64609988    0.31369888    0.09370000
opls_146-277    H    0.02830012    0.62299997    0.57220052    0.20980000
opls_146-278    H    0.11620006    0.59789991    0.30689982    0.20980000
opls_146-279    H    0.08150018    0.57329988    0.57140023    0.20930000
opls_144-280    H    0.13100003    0.53550011    0.78360021    0.21070000
opls_146-281    H    0.16330004    0.49310010    0.74770002    0.21110000
opls_146-282    H    0.21960008    0.50159990    0.42419932    0.20600000
opls_146-283    H    0.21129994    0.44510010    0.62579944    0.20590000
opls_146-284    H    0.26849989    0.45410004    0.29309882    0.21080000
opls_146-285    H    0.25129993    0.41080011    0.49599969    0.21080000
opls_146-286    H    0.30800003    0.42050012    0.16219896    0.20440000
opls_146-287    H    0.30060007    0.36350004    0.36530047    0.20590000
opls_146-288    H    0.35619988    0.37300019    0.04099948    0.20990000
opls_144-289    H    0.38860004    0.33150013    0.00659842    0.21070000
opls_146-290    H    0.40710004    0.26710012    0.49359883    0.20980000
opls_146-291    H    0.43649997    0.29570003    0.23379870    0.21070000
opls_146-292    H    0.45890006    0.21629998    0.55119919    0.21030000
opls_146-293    H    0.48870015    0.24409996    0.28989993    0.21110000
opls_753-294    N    0.15070002    0.16290002    0.94729830    -0.38280000
opls_753-295    N    0.40699998    0.11920007    0.32609994    -0.38860000
opls_753-296    N    0.93289997    0.56989989    0.13569933    -0.38280000
opls_753-297    N    0.95650005    0.30899992    0.51109919    -0.38450000
opls_753-298    N    0.98740000    0.04190012    0.43020034    -0.38270000
opls_753-299    N    0.96770008    0.80380012    0.78549835    -0.38870000
opls_753-300    N    0.86519986    0.20870013    0.16219896    -0.38780000
opls_753-301    N    0.64889999    0.16700007    0.82319975    -0.38310000
opls_753-302    N    0.86429989    0.80310008    0.26999872    -0.38590000
opls_753-303    N    0.61199997    0.01940011    0.71389861    -0.38600000
opls_753-304    N    0.16230005    0.56019994    0.58450014    -0.38600000
opls_753-305    N    0.35910011    0.30469999    0.20930091    -0.38490000
