#======================================================================
# Crystal Data Generated By AuToFF
#----------------------------------------------------------------------

data_AuToFF_phase_1

_cell_length_a                         21.2315
_cell_length_b                         21.2315
_cell_length_c                         3.6125
_cell_angle_alpha                      90.00
_cell_angle_beta                       90.00
_cell_angle_gamma                      120.00
_symmetry_space_group_name_H-M_alt     'P 1'
_symmetry_space_group_IT_number        1

loop_
_space_group_symop_operation_xyz
   'x, y, z'

loop_
   _atom_site_label
   _atom_site_type_symbol
   _atom_site_fract_x
   _atom_site_fract_y
   _atom_site_fract_z
   _atom_site_charge
opls_145-0    C    0.69770015    0.40925990    0.50000000    -0.16230000
opls_700-1    C    0.62168019    0.36442012    0.50000000    0.01400000
opls_567-2    C    0.57588998    0.39726992    0.50000000    0.24990000
opls_567-3    C    0.55925006    0.49243978    0.50000000    0.24100000
opls_700-4    C    0.48881996    0.42990001    0.50000000    -0.00560000
opls_700-5    C    0.50110010    0.36892982    0.50000000    -0.11140000
opls_145-6    C    0.57375009    0.56366013    0.50000000    -0.19930000
opls_423-7    C    0.44645018    0.29492000    0.50000000    0.17570000
opls_145-8    C    0.59073997    0.28843989    0.50000000    -0.16230000
opls_700-9    C    0.63557992    0.25725974    0.50000000    0.01400000
opls_567-10    C    0.60273017    0.17862003    0.50000000    0.24990000
opls_567-11    C    0.50756000    0.06681017    0.50000000    0.24100000
opls_700-12    C    0.57010000    0.05891982    0.50000000    -0.00560000
opls_700-13    C    0.63106998    0.13216987    0.50000000    -0.11140000
opls_145-14    C    0.43634014    0.01009027    0.50000000    -0.19930000
opls_423-15    C    0.70507979    0.15152972    0.50000000    0.17570000
opls_145-16    C    0.71155987    0.30230021    0.50000000    -0.16230000
opls_700-17    C    0.74273989    0.37832014    0.50000000    0.01400000
opls_567-18    C    0.82137985    0.42411005    0.50000000    0.24990000
opls_567-19    C    0.93318995    0.44075005    0.50000000    0.24100000
opls_700-20    C    0.94108004    0.51118017    0.50000000    -0.00560000
opls_700-21    C    0.86782965    0.49889977    0.50000000    -0.11140000
opls_145-22    C    0.98991004    0.42625015    0.50000000    -0.19930000
opls_423-23    C    0.84846975    0.55354973    0.50000000    0.17570000
opls_145-24    C    0.30229985    0.59074010    0.50000000    -0.16230000
opls_700-25    C    0.37831981    0.63557988    0.50000000    0.01400000
opls_567-26    C    0.42411002    0.60273008    0.50000000    0.24990000
opls_567-27    C    0.44074994    0.50756022    0.50000000    0.24100000
opls_700-28    C    0.51118004    0.57009999    0.50000000    -0.00560000
opls_700-29    C    0.49889990    0.63107018    0.50000000    -0.11140000
opls_145-30    C    0.42624991    0.43633987    0.50000000    -0.19930000
opls_423-31    C    0.55354982    0.70508000    0.50000000    0.17570000
opls_145-32    C    0.40926003    0.71156011    0.50000000    -0.16230000
opls_700-33    C    0.36441981    0.74273972    0.50000000    0.01400000
opls_567-34    C    0.39726983    0.82137997    0.50000000    0.24990000
opls_567-35    C    0.49244000    0.93318983    0.50000000    0.24100000
opls_700-36    C    0.42990000    0.94108018    0.50000000    -0.00560000
opls_700-37    C    0.36893002    0.86783013    0.50000000    -0.11140000
opls_145-38    C    0.56365986    0.98990973    0.50000000    -0.19930000
opls_423-39    C    0.29491993    0.84846974    0.50000000    0.17570000
opls_145-40    C    0.28844013    0.69769979    0.50000000    -0.16230000
opls_700-41    C    0.25726011    0.62167986    0.50000000    0.01400000
opls_567-42    C    0.17862015    0.57588995    0.50000000    0.24990000
opls_567-43    C    0.06681005    0.55924995    0.50000000    0.24100000
opls_700-44    C    0.05891996    0.48881983    0.50000000    -0.00560000
opls_700-45    C    0.13217008    0.50109969    0.50000000    -0.11140000
opls_145-46    C    0.01008996    0.57374985    0.50000000    -0.19930000
opls_423-47    C    0.15152997    0.44644972    0.50000000    0.17570000
opls_566-48    O    0.61126013    0.47191008    0.50000000    -0.12060000
opls_566-49    O    0.52809006    0.13934993    0.50000000    -0.12060000
opls_566-50    O    0.86064982    0.38873999    0.50000000    -0.12060000
opls_566-51    O    0.38873987    0.52808992    0.50000000    -0.12060000
opls_566-52    O    0.47190994    0.86065007    0.50000000    -0.12060000
opls_566-53    O    0.13935018    0.61126001    0.50000000    -0.12060000
opls_753-54    N    0.40103009    0.23397973    0.50000000    -0.30980000
opls_753-55    N    0.76601983    0.16704991    0.50000000    -0.30980000
opls_753-56    N    0.83294981    0.59896982    0.50000000    -0.30980000
opls_753-57    N    0.59896964    0.76601972    0.50000000    -0.30980000
opls_753-58    N    0.23398017    0.83295009    0.50000000    -0.30980000
opls_753-59    N    0.16705019    0.40103018    0.50000000    -0.30980000
opls_146-60    H    0.72111015    0.46798013    0.50000000    0.11650000
opls_146-61    H    0.62875997    0.61017990    0.50000000    0.11170000
opls_146-62    H    0.53202020    0.25313020    0.50000000    0.11710000
opls_146-63    H    0.38981985    0.01857995    0.50000000    0.11170000
opls_146-64    H    0.74686993    0.27889022    0.50000000    0.11650000
opls_146-65    H    0.98142018    0.37124015    0.50000000    0.11170000
opls_146-66    H    0.27888985    0.53201987    0.50000000    0.11650000
opls_146-67    H    0.37124003    0.38982010    0.50000000    0.11170000
opls_146-68    H    0.46797980    0.74686980    0.50000000    0.11710000
opls_146-69    H    0.61018015    0.98142005    0.50000000    0.11170000
opls_146-70    H    0.25313007    0.72110978    0.50000000    0.11650000
opls_146-71    H    0.01857982    0.62875985    0.50000000    0.11170000
