#======================================================================
# Crystal Data Generated By AuToFF
#----------------------------------------------------------------------

data_AuToFF_phase_1

_cell_length_a                         21.4161
_cell_length_b                         21.4161
_cell_length_c                         13.3119
_cell_angle_alpha                      90.00
_cell_angle_beta                       90.00
_cell_angle_gamma                      90.00
_symmetry_space_group_name_H-M_alt     'P 1'
_symmetry_space_group_IT_number        1

loop_
_space_group_symop_operation_xyz
   'x, y, z'

loop_
   _atom_site_label
   _atom_site_type_symbol
   _atom_site_fract_x
   _atom_site_fract_y
   _atom_site_fract_z
   _atom_site_charge
opls_700-0    C    0.52975005    0.65193990    0.78438991    0.05590000
opls_145-1    C    0.47020980    0.62624988    0.79935021    -0.11840000
opls_145-2    C    0.46138980    0.57820005    0.86883014    -0.13130000
opls_700-3    C    0.51136014    0.55558015    0.92779994    0.04530000
opls_145-4    C    0.57152983    0.57993986    0.90849015    -0.13170000
opls_145-5    C    0.58029006    0.62800977    0.83891030    -0.11760000
opls_142-6    C    0.54032013    0.70276007    0.71134023    0.01280000
opls_700-7    C    0.02975005    0.15193990    0.28438991    0.05590000
opls_145-8    C    0.97020980    0.12624988    0.29935021    -0.11840000
opls_145-9    C    0.96138980    0.07820005    0.36883014    -0.13130000
opls_700-10    C    0.01136014    0.05558015    0.42779994    0.04530000
opls_145-11    C    0.07152983    0.07993986    0.40849015    -0.13170000
opls_145-12    C    0.08029006    0.12800977    0.33891030    -0.11760000
opls_142-13    C    0.04032013    0.20276007    0.21134023    0.01280000
opls_700-14    C    0.97024995    0.84806010    0.28438991    0.05590000
opls_145-15    C    0.02979020    0.87375012    0.29935021    -0.11840000
opls_145-16    C    0.03861020    0.92179995    0.36883014    -0.13130000
opls_700-17    C    0.98863986    0.94441985    0.42779994    0.04540000
opls_145-18    C    0.92847017    0.92006014    0.40849015    -0.13170000
opls_145-19    C    0.91970994    0.87199023    0.33891030    -0.11760000
opls_142-20    C    0.95967987    0.79723993    0.21134023    0.01280000
opls_700-21    C    0.47024995    0.34806010    0.78438991    0.05590000
opls_145-22    C    0.52979020    0.37375012    0.79935021    -0.11830000
opls_145-23    C    0.53861020    0.42179995    0.86883014    -0.13130000
opls_700-24    C    0.48863986    0.44441985    0.92779994    0.04530000
opls_145-25    C    0.42847017    0.42006014    0.90849015    -0.13170000
opls_145-26    C    0.41970994    0.37199023    0.83891030    -0.11760000
opls_142-27    C    0.45967987    0.29723993    0.71134023    0.01280000
opls_700-28    C    0.34806010    0.02975005    0.03439028    0.05590000
opls_145-29    C    0.37375012    0.97020980    0.04934983    -0.11840000
opls_145-30    C    0.42179995    0.96138980    0.11882977    -0.13150000
opls_700-31    C    0.44441985    0.01136014    0.17780031    0.04530000
opls_145-32    C    0.42006014    0.07152983    0.15848977    -0.13170000
opls_145-33    C    0.37199023    0.08029006    0.08890992    -0.11760000
opls_142-34    C    0.29723993    0.04032013    0.96133985    0.01280000
opls_700-35    C    0.84806010    0.52975005    0.53439028    0.05590000
opls_145-36    C    0.87375012    0.47020980    0.54934983    -0.11840000
opls_145-37    C    0.92179995    0.46138980    0.61882977    -0.13150000
opls_700-38    C    0.94441985    0.51136014    0.67780031    0.04530000
opls_145-39    C    0.92006014    0.57152983    0.65848977    -0.13170000
opls_145-40    C    0.87199023    0.58029006    0.58890992    -0.11760000
opls_142-41    C    0.79723993    0.54032013    0.46133985    0.01280000
opls_700-42    C    0.15193990    0.47024995    0.53439028    0.05590000
opls_145-43    C    0.12624988    0.52979020    0.54934983    -0.11840000
opls_145-44    C    0.07820005    0.53861020    0.61882977    -0.13150000
opls_700-45    C    0.05558015    0.48863986    0.67780031    0.04530000
opls_145-46    C    0.07993986    0.42847017    0.65848977    -0.13170000
opls_145-47    C    0.12800977    0.41970994    0.58890992    -0.11760000
opls_142-48    C    0.20276007    0.45967987    0.46133985    0.01280000
opls_700-49    C    0.65193990    0.97024995    0.03439028    0.05590000
opls_145-50    C    0.62624988    0.02979020    0.04934983    -0.11840000
opls_145-51    C    0.57820005    0.03861020    0.11882977    -0.13150000
opls_700-52    C    0.55558015    0.98863986    0.17780031    0.04530000
opls_145-53    C    0.57993986    0.92847017    0.15848977    -0.13170000
opls_145-54    C    0.62800977    0.91970994    0.08890992    -0.11760000
opls_142-55    C    0.70276007    0.95967987    0.96133985    0.01280000
opls_700-56    C    0.47024995    0.84806010    0.46560972    0.05590000
opls_145-57    C    0.52979020    0.87375012    0.45065017    -0.11840000
opls_145-58    C    0.53861020    0.92179995    0.38117023    -0.13150000
opls_700-59    C    0.48863986    0.94441985    0.32219969    0.04530000
opls_145-60    C    0.42847017    0.92006014    0.34151023    -0.13170000
opls_145-61    C    0.41970994    0.87199023    0.41109008    -0.11760000
opls_142-62    C    0.45967987    0.79723993    0.53866015    0.01280000
opls_700-63    C    0.97024995    0.34806010    0.96560972    0.05590000
opls_145-64    C    0.02979020    0.37375012    0.95065017    -0.11840000
opls_145-65    C    0.03861020    0.42179995    0.88117023    -0.13150000
opls_700-66    C    0.98863986    0.44441985    0.82219969    0.04530000
opls_145-67    C    0.92847017    0.42006014    0.84151023    -0.13170000
opls_145-68    C    0.91970994    0.37199023    0.91109008    -0.11760000
opls_142-69    C    0.95967987    0.29723993    0.03866015    0.01280000
opls_700-70    C    0.02975005    0.65193990    0.96560972    0.05590000
opls_145-71    C    0.97020980    0.62624988    0.95065017    -0.11840000
opls_145-72    C    0.96138980    0.57820005    0.88117023    -0.13150000
opls_700-73    C    0.01136014    0.55558015    0.82219969    0.04530000
opls_145-74    C    0.07152983    0.57993986    0.84151023    -0.13170000
opls_145-75    C    0.08029006    0.62800977    0.91109008    -0.11760000
opls_142-76    C    0.04032013    0.70276007    0.03866015    0.01280000
opls_700-77    C    0.52975005    0.15193990    0.46560972    0.05590000
opls_145-78    C    0.47020980    0.12624988    0.45065017    -0.11840000
opls_145-79    C    0.46138980    0.07820005    0.38117023    -0.13150000
opls_700-80    C    0.51136014    0.05558015    0.32219969    0.04530000
opls_145-81    C    0.57152983    0.07993986    0.34151023    -0.13170000
opls_145-82    C    0.58029006    0.12800977    0.41109008    -0.11760000
opls_142-83    C    0.54032013    0.20276007    0.53866015    0.01280000
opls_700-84    C    0.65193990    0.47024995    0.21561009    0.05590000
opls_145-85    C    0.62624988    0.52979020    0.20064979    -0.11840000
opls_145-86    C    0.57820005    0.53861020    0.13116986    -0.13130000
opls_700-87    C    0.55558015    0.48863986    0.07220006    0.04530000
opls_145-88    C    0.57993986    0.42847017    0.09150985    -0.13170000
opls_145-89    C    0.62800977    0.41970994    0.16108970    -0.11760000
opls_142-90    C    0.70276007    0.45967987    0.28865977    0.01280000
opls_700-91    C    0.15193990    0.97024995    0.71561009    0.05590000
opls_145-92    C    0.12624988    0.02979020    0.70064979    -0.11840000
opls_145-93    C    0.07820005    0.03861020    0.63116986    -0.13130000
opls_700-94    C    0.05558015    0.98863986    0.57220006    0.04530000
opls_145-95    C    0.07993986    0.92847017    0.59150985    -0.13160000
opls_145-96    C    0.12800977    0.91970994    0.66108970    -0.11760000
opls_142-97    C    0.20276007    0.95967987    0.78865977    0.01280000
opls_700-98    C    0.84806010    0.02975005    0.71561009    0.05590000
opls_145-99    C    0.87375012    0.97020980    0.70064979    -0.11840000
opls_145-100    C    0.92179995    0.96138980    0.63116986    -0.13130000
opls_700-101    C    0.94441985    0.01136014    0.57220006    0.04530000
opls_145-102    C    0.92006014    0.07152983    0.59150985    -0.13170000
opls_145-103    C    0.87199023    0.08029006    0.66108970    -0.11760000
opls_142-104    C    0.79723993    0.04032013    0.78865977    0.01280000
opls_700-105    C    0.34806010    0.52975005    0.21561009    0.05590000
opls_145-106    C    0.37375012    0.47020980    0.20064979    -0.11830000
opls_145-107    C    0.42179995    0.46138980    0.13116986    -0.13130000
opls_700-108    C    0.44441985    0.51136014    0.07220006    0.04530000
opls_145-109    C    0.42006014    0.57152983    0.09150985    -0.13160000
opls_145-110    C    0.37199023    0.58029006    0.16108970    -0.11760000
opls_142-111    C    0.29723993    0.54032013    0.28865977    0.01280000
opls_701-112    C    0.50000000    0.50000000    0.00000000    0.00440000
opls_701-113    C    0.00000000    0.00000000    0.50000000    0.00440000
opls_701-114    C    0.50000000    0.00000000    0.24999962    0.00440000
opls_701-115    C    0.00000000    0.50000000    0.74999962    0.00440000
opls_146-116    H    0.43047007    0.64294012    0.75681007    0.11620000
opls_146-117    H    0.41507978    0.55854988    0.87714977    0.11740000
opls_146-118    H    0.61254010    0.56125018    0.94501010    0.11680000
opls_146-119    H    0.62694982    0.64604013    0.82674975    0.11410000
opls_144-120    H    0.58709989    0.72103978    0.70112005    0.10650000
opls_146-121    H    0.93047007    0.14294012    0.25681007    0.11620000
opls_146-122    H    0.91507978    0.05854988    0.37714977    0.11740000
opls_146-123    H    0.11254010    0.06125018    0.44501010    0.11680000
opls_146-124    H    0.12694982    0.14604013    0.32674975    0.11410000
opls_144-125    H    0.08709989    0.22103978    0.20112005    0.10650000
opls_146-126    H    0.06952993    0.85705988    0.25681007    0.11620000
opls_146-127    H    0.08492022    0.94145012    0.37714977    0.11740000
opls_146-128    H    0.88745990    0.93874982    0.44501010    0.11680000
opls_146-129    H    0.87305018    0.85395987    0.32674975    0.11410000
opls_144-130    H    0.91290011    0.77896022    0.20112005    0.10650000
opls_146-131    H    0.56952993    0.35705988    0.75681007    0.11630000
opls_146-132    H    0.58492022    0.44145012    0.87714977    0.11740000
opls_146-133    H    0.38745990    0.43874982    0.94501010    0.11680000
opls_146-134    H    0.37305018    0.35395987    0.82674975    0.11420000
opls_144-135    H    0.41290011    0.27896022    0.70112005    0.10660000
opls_146-136    H    0.35705988    0.93047007    0.00680970    0.11620000
opls_146-137    H    0.44145012    0.91507978    0.12715014    0.11740000
opls_146-138    H    0.43874982    0.11254010    0.19500973    0.11680000
opls_146-139    H    0.35395987    0.12694982    0.07675013    0.11420000
opls_144-140    H    0.27896022    0.08709989    0.95111967    0.10650000
opls_146-141    H    0.85705988    0.43047007    0.50680970    0.11620000
opls_146-142    H    0.94145012    0.41507978    0.62715014    0.11740000
opls_146-143    H    0.93874982    0.61254010    0.69500973    0.11680000
opls_146-144    H    0.85395987    0.62694982    0.57675013    0.11410000
opls_144-145    H    0.77896022    0.58709989    0.45111967    0.10660000
opls_146-146    H    0.14294012    0.56952993    0.50680970    0.11620000
opls_146-147    H    0.05854988    0.58492022    0.62715014    0.11740000
opls_146-148    H    0.06125018    0.38745990    0.69500973    0.11680000
opls_146-149    H    0.14604013    0.37305018    0.57675013    0.11410000
opls_144-150    H    0.22103978    0.41290011    0.45111967    0.10650000
opls_146-151    H    0.64294012    0.06952993    0.00680970    0.11620000
opls_146-152    H    0.55854988    0.08492022    0.12715014    0.11740000
opls_146-153    H    0.56125018    0.88745990    0.19500973    0.11680000
opls_146-154    H    0.64604013    0.87305018    0.07675013    0.11420000
opls_144-155    H    0.72103978    0.91290011    0.95111967    0.10650000
opls_146-156    H    0.56952993    0.85705988    0.49319030    0.11620000
opls_146-157    H    0.58492022    0.94145012    0.37284986    0.11740000
opls_146-158    H    0.38745990    0.93874982    0.30499027    0.11680000
opls_146-159    H    0.37305018    0.85395987    0.42324987    0.11410000
opls_144-160    H    0.41290011    0.77896022    0.54888033    0.10650000
opls_146-161    H    0.06952993    0.35705988    0.99319030    0.11620000
opls_146-162    H    0.08492022    0.44145012    0.87284986    0.11740000
opls_146-163    H    0.88745990    0.43874982    0.80499027    0.11680000
opls_146-164    H    0.87305018    0.35395987    0.92324987    0.11410000
opls_144-165    H    0.91290011    0.27896022    0.04888033    0.10650000
opls_146-166    H    0.93047007    0.64294012    0.99319030    0.11620000
opls_146-167    H    0.91507978    0.55854988    0.87284986    0.11750000
opls_146-168    H    0.11254010    0.56125018    0.80499027    0.11680000
opls_146-169    H    0.12694982    0.64604013    0.92324987    0.11410000
opls_144-170    H    0.08709989    0.72103978    0.04888033    0.10650000
opls_146-171    H    0.43047007    0.14294012    0.49319030    0.11620000
opls_146-172    H    0.41507978    0.05854988    0.37284986    0.11740000
opls_146-173    H    0.61254010    0.06125018    0.30499027    0.11680000
opls_146-174    H    0.62694982    0.14604013    0.42324987    0.11410000
opls_144-175    H    0.58709989    0.22103978    0.54888033    0.10650000
opls_146-176    H    0.64294012    0.56952993    0.24318993    0.11620000
opls_146-177    H    0.55854988    0.58492022    0.12285023    0.11740000
opls_146-178    H    0.56125018    0.38745990    0.05498990    0.11680000
opls_146-179    H    0.64604013    0.37305018    0.17325025    0.11410000
opls_144-180    H    0.72103978    0.41290011    0.29887995    0.10650000
opls_146-181    H    0.14294012    0.06952993    0.74318993    0.11620000
opls_146-182    H    0.05854988    0.08492022    0.62285023    0.11750000
opls_146-183    H    0.06125018    0.88745990    0.55498990    0.11680000
opls_146-184    H    0.14604013    0.87305018    0.67325025    0.11410000
opls_144-185    H    0.22103978    0.91290011    0.79887995    0.10650000
opls_146-186    H    0.85705988    0.93047007    0.74318993    0.11620000
opls_146-187    H    0.94145012    0.91507978    0.62285023    0.11740000
opls_146-188    H    0.93874982    0.11254010    0.55498990    0.11680000
opls_146-189    H    0.85395987    0.12694982    0.67325025    0.11410000
opls_144-190    H    0.77896022    0.08709989    0.79887995    0.10650000
opls_146-191    H    0.35705988    0.43047007    0.24318993    0.11620000
opls_146-192    H    0.44145012    0.41507978    0.12285023    0.11740000
opls_146-193    H    0.43874982    0.61254010    0.05498990    0.11680000
opls_146-194    H    0.35395987    0.62694982    0.17325025    0.11410000
opls_144-195    H    0.27896022    0.58709989    0.29887995    0.10650000
opls_750-196    N    0.49469978    0.72590014    0.65947986    -0.18710000
opls_750-197    N    0.99469978    0.22590014    0.15947986    -0.18710000
opls_750-198    N    0.00530022    0.77409986    0.15947986    -0.18710000
opls_750-199    N    0.50530022    0.27409986    0.65947986    -0.18700000
opls_750-200    N    0.27409986    0.99469978    0.90948024    -0.18710000
opls_750-201    N    0.77409986    0.49469978    0.40948024    -0.18710000
opls_750-202    N    0.22590014    0.50530022    0.40948024    -0.18710000
opls_750-203    N    0.72590014    0.00530022    0.90948024    -0.18700000
opls_750-204    N    0.50530022    0.77409986    0.59051976    -0.18710000
opls_750-205    N    0.00530022    0.27409986    0.09051976    -0.18710000
opls_750-206    N    0.99469978    0.72590014    0.09051976    -0.18710000
opls_750-207    N    0.49469978    0.22590014    0.59051976    -0.18700000
opls_750-208    N    0.72590014    0.50530022    0.34052014    -0.18710000
opls_750-209    N    0.22590014    0.00530022    0.84052014    -0.18710000
opls_750-210    N    0.77409986    0.99469978    0.84052014    -0.18710000
opls_750-211    N    0.27409986    0.49469978    0.34052014    -0.18710000
