#======================================================================
# Crystal Data Generated By AuToFF
#----------------------------------------------------------------------

data_AuToFF_phase_1

_cell_length_a                         21.8507
_cell_length_b                         21.8507
_cell_length_c                         7.1610
_cell_angle_alpha                      90.00
_cell_angle_beta                       90.00
_cell_angle_gamma                      120.00
_symmetry_space_group_name_H-M_alt     'P 1'
_symmetry_space_group_IT_number        1

loop_
_space_group_symop_operation_xyz
   'x, y, z'

loop_
   _atom_site_label
   _atom_site_type_symbol
   _atom_site_fract_x
   _atom_site_fract_y
   _atom_site_fract_z
   _atom_site_charge
opls_280-0    C    0.07597014    0.03402004    0.11700042    0.30100000
opls_145-1    C    0.04224991    0.07718015    0.14302053    -0.16480000
opls_142-2    C    0.07863990    0.14657992    0.17695992    0.01350000
opls_141-3    C    0.20643995    0.24262997    0.19674068    0.31300000
opls_916-4    C    0.30358994    0.21189002    0.27782014    0.15690000
opls_145-5    C    0.26136001    0.13796988    0.28788018    -0.19590000
opls_700-6    C    0.29002981    0.09318003    0.29888982    0.08930000
opls_148-7    C    0.42304972    0.31634983    0.35447005    -0.43230000
opls_280-8    C    0.59069988    0.29930995    0.11700042    0.30100000
opls_145-9    C    0.62441005    0.25614984    0.14302053    -0.16480000
opls_142-10    C    0.58802005    0.18675006    0.17695992    0.01580000
opls_141-11    C    0.46023007    0.09071006    0.19674068    0.31300000
opls_916-12    C    0.36307002    0.12143996    0.27782014    0.15690000
opls_145-13    C    0.40531001    0.19536010    0.28788018    -0.19660000
opls_700-14    C    0.37663975    0.24014995    0.29888982    0.08920000
opls_148-15    C    0.24362031    0.01698016    0.35447005    -0.43230000
opls_280-16    C    0.96597995    0.04194996    0.11700042    0.30110000
opls_145-17    C    0.92282019    0.96506997    0.14302053    -0.16480000
opls_142-18    C    0.85341978    0.93205980    0.17695992    0.01350000
opls_141-19    C    0.75736993    0.96381015    0.19674068    0.31300000
opls_916-20    C    0.78810990    0.09169984    0.27782014    0.15690000
opls_145-21    C    0.86202997    0.12338994    0.28788018    -0.19590000
opls_700-22    C    0.90682006    0.19684980    0.29888982    0.08930000
opls_148-23    C    0.68365012    0.10669990    0.35447005    -0.43230000
opls_280-24    C    0.70069007    0.29139007    0.11700042    0.30100000
opls_145-25    C    0.74384983    0.36826001    0.14302053    -0.16480000
opls_142-26    C    0.81325025    0.40127018    0.17695992    0.01580000
opls_141-27    C    0.90929003    0.36951984    0.19674068    0.31300000
opls_916-28    C    0.87856013    0.24163014    0.27782014    0.15690000
opls_145-29    C    0.80464004    0.20995008    0.28788018    -0.19650000
opls_700-30    C    0.75984996    0.13649022    0.29888982    0.08920000
opls_148-31    C    0.98301989    0.22664012    0.35447005    -0.43230000
opls_280-32    C    0.95804991    0.92403000    0.11700042    0.30100000
opls_145-33    C    0.03492989    0.95774988    0.14302053    -0.16480000
opls_142-34    C    0.06794032    0.92136027    0.17695992    0.01350000
opls_141-35    C    0.03619012    0.79355988    0.19674068    0.31310000
opls_916-36    C    0.90830017    0.69641013    0.27782014    0.15690000
opls_145-37    C    0.87661001    0.73864017    0.28788018    -0.19600000
opls_700-38    C    0.80315013    0.70997016    0.29888982    0.08930000
opls_148-39    C    0.89330015    0.57695027    0.35447005    -0.43230000
opls_280-40    C    0.70861005    0.40929998    0.11700042    0.30100000
opls_145-41    C    0.63174012    0.37559015    0.14302053    -0.16480000
opls_142-42    C    0.59872996    0.41198028    0.17695992    0.01580000
opls_141-43    C    0.63047991    0.53977010    0.19674068    0.31300000
opls_916-44    C    0.75836985    0.63692989    0.27782014    0.15690000
opls_145-45    C    0.79004995    0.59468982    0.28788018    -0.19660000
opls_700-46    C    0.86350983    0.62335982    0.29888982    0.08920000
opls_148-47    C    0.77336007    0.75638024    0.35447005    -0.43230000
opls_280-48    C    0.92402986    0.96597996    0.61700042    0.30100000
opls_145-49    C    0.95775009    0.92281985    0.64302053    -0.16480000
opls_142-50    C    0.92136010    0.85342008    0.67695992    0.01350000
opls_141-51    C    0.79356005    0.75737003    0.69674068    0.31300000
opls_916-52    C    0.69641006    0.78810998    0.77782014    0.15690000
opls_145-53    C    0.73863999    0.86203012    0.78788018    -0.19600000
opls_700-54    C    0.70997019    0.90681997    0.79888982    0.08930000
opls_148-55    C    0.57695028    0.68365017    0.85447005    -0.43230000
opls_280-56    C    0.40930012    0.70069005    0.61700042    0.30100000
opls_145-57    C    0.37558995    0.74385016    0.64302053    -0.16480000
opls_142-58    C    0.41197995    0.81324994    0.67695992    0.01580000
opls_141-59    C    0.53976993    0.90928994    0.69674068    0.31300000
opls_916-60    C    0.63692998    0.87856004    0.77782014    0.15690000
opls_145-61    C    0.59468999    0.80463990    0.78788018    -0.19660000
opls_700-62    C    0.62336025    0.75985005    0.79888982    0.08920000
opls_148-63    C    0.75637969    0.98301984    0.85447005    -0.43230000
opls_280-64    C    0.03402005    0.95805004    0.61700042    0.30110000
opls_145-65    C    0.07717981    0.03493003    0.64302053    -0.16480000
opls_142-66    C    0.14658022    0.06794020    0.67695992    0.01350000
opls_141-67    C    0.24263007    0.03618985    0.69674068    0.31300000
opls_916-68    C    0.21189010    0.90830016    0.77782014    0.15690000
opls_145-69    C    0.13797003    0.87661006    0.78788018    -0.19600000
opls_700-70    C    0.09317994    0.80315020    0.79888982    0.08930000
opls_148-71    C    0.31634988    0.89330010    0.85447005    -0.43230000
opls_280-72    C    0.29930993    0.70860993    0.61700042    0.30100000
opls_145-73    C    0.25615017    0.63173999    0.64302053    -0.16480000
opls_142-74    C    0.18674975    0.59872982    0.67695992    0.01580000
opls_141-75    C    0.09070997    0.63048016    0.69674068    0.31300000
opls_916-76    C    0.12143987    0.75836986    0.77782014    0.15690000
opls_145-77    C    0.19535996    0.79004992    0.78788018    -0.19660000
opls_700-78    C    0.24015031    0.86351030    0.79888982    0.08920000
opls_148-79    C    0.01698011    0.77335988    0.85447005    -0.43230000
opls_280-80    C    0.04195009    0.07597000    0.61700042    0.30100000
opls_145-81    C    0.96507011    0.04225012    0.64302053    -0.16480000
opls_142-82    C    0.93205995    0.07864026    0.67695992    0.01350000
opls_141-83    C    0.96380988    0.20644012    0.69674068    0.31300000
opls_916-84    C    0.09169983    0.30358987    0.77782014    0.15690000
opls_145-85    C    0.12338999    0.26135983    0.78788018    -0.19600000
opls_700-86    C    0.19684987    0.29002984    0.79888982    0.08930000
opls_148-87    C    0.10670011    0.42305026    0.85447005    -0.43230000
opls_280-88    C    0.29138995    0.59070002    0.61700042    0.30100000
opls_145-89    C    0.36825988    0.62440985    0.64302053    -0.16480000
opls_142-90    C    0.40127030    0.58802025    0.67695992    0.01580000
opls_141-91    C    0.36952009    0.46022990    0.69674068    0.31300000
opls_916-92    C    0.24163015    0.36307011    0.77782014    0.15690000
opls_145-93    C    0.20995005    0.40531018    0.78788018    -0.19660000
opls_700-94    C    0.13649017    0.37664018    0.79888982    0.08930000
opls_148-95    C    0.22663993    0.24361976    0.85447005    -0.43230000
opls_238-96    N    0.14723988    0.17903998    0.25871945    -0.36600000
opls_238-97    N    0.27544995    0.25951977    0.25853931    -0.40720000
opls_238-98    N    0.51943015    0.15429001    0.25871945    -0.36600000
opls_238-99    N    0.39121001    0.07381022    0.25853931    -0.40710000
opls_238-100    N    0.82096014    0.96819998    0.25871945    -0.36540000
opls_238-101    N    0.74048027    0.01593013    0.25853931    -0.40720000
opls_238-102    N    0.84570988    0.36514004    0.25871945    -0.36590000
opls_238-103    N    0.92618976    0.31739986    0.25853931    -0.40720000
opls_238-104    N    0.03179998    0.85276004    0.25871945    -0.36550000
opls_238-105    N    0.98407023    0.72455010    0.25853931    -0.40710000
opls_238-106    N    0.63485997    0.48056994    0.25871945    -0.36600000
opls_238-107    N    0.68259978    0.60878992    0.25853931    -0.40720000
opls_238-108    N    0.85276012    0.82096002    0.75871945    -0.36550000
opls_238-109    N    0.72455005    0.74048023    0.75853931    -0.40720000
opls_238-110    N    0.48056985    0.84570999    0.75871945    -0.36600000
opls_238-111    N    0.60879026    0.92619031    0.75853931    -0.40720000
opls_238-112    N    0.17903986    0.03180002    0.75871945    -0.36550000
opls_238-113    N    0.25951973    0.98406987    0.75853931    -0.40710000
opls_238-114    N    0.15429012    0.63485996    0.75871945    -0.36590000
opls_238-115    N    0.07381024    0.68260014    0.75853931    -0.40720000
opls_238-116    N    0.96820002    0.14723996    0.75871945    -0.36530000
opls_238-117    N    0.01592977    0.27544990    0.75853931    -0.40720000
opls_238-118    N    0.36514003    0.51943006    0.75871945    -0.36600000
opls_238-119    N    0.31740022    0.39121008    0.75853931    -0.40710000
opls_474-120    S    0.19599984    0.29784984    0.12210027    -0.20830000
opls_474-121    S    0.47067018    0.03548014    0.12210027    -0.20930000
opls_474-122    S    0.70215029    0.89815021    0.12210027    -0.20830000
opls_474-123    S    0.96451972    0.43518981    0.12210027    -0.20920000
opls_474-124    S    0.10184986    0.80399995    0.12210027    -0.20830000
opls_474-125    S    0.56481010    0.52933004    0.12210027    -0.20920000
opls_474-126    S    0.80400016    0.70215016    0.62210027    -0.20830000
opls_474-127    S    0.52932982    0.96451986    0.62210027    -0.20920000
opls_474-128    S    0.29784971    0.10184979    0.62210027    -0.20830000
opls_474-129    S    0.03548028    0.56481019    0.62210027    -0.20920000
opls_474-130    S    0.89815014    0.19600005    0.62210027    -0.20830000
opls_474-131    S    0.43518990    0.47066996    0.62210027    -0.20920000
opls_281-132    O    0.13571988    0.06011015    0.05657031    -0.35300000
opls_281-133    O    0.53095013    0.27322988    0.05657031    -0.35300000
opls_281-134    O    0.93989012    0.07561012    0.05657031    -0.35290000
opls_281-135    O    0.72676984    0.25771986    0.05657031    -0.35290000
opls_281-136    O    0.92439026    0.86428026    0.05657031    -0.35300000
opls_281-137    O    0.74228003    0.46905026    0.05657031    -0.35300000
opls_281-138    O    0.86428012    0.93988985    0.55657031    -0.35300000
opls_281-139    O    0.46904987    0.72677012    0.55657031    -0.35300000
opls_281-140    O    0.06010988    0.92438988    0.55657031    -0.35300000
opls_281-141    O    0.27323016    0.74228014    0.55657031    -0.35300000
opls_281-142    O    0.07561000    0.13572027    0.55657031    -0.35300000
opls_281-143    O    0.25772023    0.53095027    0.55657031    -0.35300000
opls_144-144    H    0.05379001    0.17781027    0.15781036    0.10490000
opls_910-145    H    0.31046028    0.31369014    0.26775031    0.27040000
opls_146-146    H    0.20629999    0.11370979    0.29794023    0.24510000
opls_910-147    H    0.15176013    0.16139027    0.38904064    0.26530000
opls_702-148    H    0.43176003    0.35395011    0.24179025    0.12120000
opls_702-149    H    0.47487002    0.32684009    0.40626030    0.12230000
opls_702-150    H    0.39655976    0.32872983    0.46658986    0.12480000
opls_144-151    H    0.61287021    0.15552024    0.15781036    0.10490000
opls_910-152    H    0.35620974    0.01963985    0.26775031    0.27040000
opls_146-153    H    0.46035995    0.21963023    0.29794023    0.24500000
opls_910-154    H    0.51491016    0.17194025    0.38904064    0.26530000
opls_702-155    H    0.23490998    0.97938991    0.24179025    0.11960000
opls_702-156    H    0.19180001    0.00648990    0.40626030    0.12230000
opls_702-157    H    0.27011026    0.00460016    0.46658986    0.12480000
opls_144-158    H    0.82219012    0.87598014    0.15781036    0.10490000
opls_910-159    H    0.68630993    0.99677011    0.26775031    0.27040000
opls_146-160    H    0.88628993    0.09258975    0.29794023    0.24500000
opls_910-161    H    0.83861018    0.99037005    0.38904064    0.26530000
opls_702-162    H    0.64604988    0.07781006    0.24179025    0.12120000
opls_702-163    H    0.67316010    0.14802999    0.40626030    0.12230000
opls_702-164    H    0.67126974    0.06782975    0.46658986    0.12490000
opls_144-165    H    0.84447991    0.45734984    0.15781036    0.10500000
opls_910-166    H    0.98036009    0.33656991    0.26775031    0.27040000
opls_146-167    H    0.78037004    0.24073019    0.29794023    0.24500000
opls_910-168    H    0.82805983    0.34296997    0.38904064    0.26540000
opls_702-169    H    0.02061008    0.25551993    0.24179025    0.11960000
opls_702-170    H    0.99350991    0.18531004    0.40626030    0.12240000
opls_702-171    H    0.99540027    0.26551028    0.46658986    0.12480000
opls_144-172    H    0.12402013    0.94621011    0.15781036    0.10490000
opls_910-173    H    0.00323005    0.68954028    0.26775031    0.27040000
opls_146-174    H    0.90740981    0.79369992    0.29794023    0.24500000
opls_910-175    H    0.00962995    0.84824021    0.38904064    0.26530000
opls_702-176    H    0.92219009    0.56823983    0.24179025    0.12120000
opls_702-177    H    0.85196988    0.52512992    0.40626030    0.12230000
opls_702-178    H    0.93216977    0.60343989    0.46658986    0.12480000
opls_144-179    H    0.54264988    0.38712991    0.15781036    0.10490000
opls_910-180    H    0.66343017    0.64379023    0.26775031    0.27050000
opls_146-181    H    0.75927028    0.53964010    0.29794023    0.24500000
opls_910-182    H    0.65703001    0.48508978    0.38904064    0.26530000
opls_702-183    H    0.74447994    0.76509016    0.24179025    0.11960000
opls_702-184    H    0.81469008    0.80820007    0.40626030    0.12230000
opls_702-185    H    0.73449019    0.72989009    0.46658986    0.12480000
opls_144-186    H    0.94621025    0.82219026    0.65781036    0.10490000
opls_910-187    H    0.68953972    0.68630986    0.76775031    0.27040000
opls_146-188    H    0.79370001    0.88629021    0.79794023    0.24500000
opls_910-189    H    0.84824013    0.83861026    0.88904064    0.26540000
opls_702-190    H    0.56823997    0.64604989    0.74179025    0.12120000
opls_702-191    H    0.52512998    0.67315991    0.90626030    0.12230000
opls_702-192    H    0.60344024    0.67127017    0.96658986    0.12480000
opls_144-193    H    0.38713005    0.84448029    0.65781036    0.10490000
opls_910-194    H    0.64379026    0.98036015    0.76775031    0.27040000
opls_146-195    H    0.53964031    0.78037030    0.79794023    0.24500000
opls_910-196    H    0.48509011    0.82806028    0.88904064    0.26540000
opls_702-197    H    0.76509002    0.02061009    0.74179025    0.11960000
opls_702-198    H    0.80819999    0.99351010    0.90626030    0.12230000
opls_702-199    H    0.72988974    0.99539984    0.96658986    0.12480000
opls_144-200    H    0.17780988    0.12401986    0.65781036    0.10490000
opls_910-201    H    0.31369007    0.00322989    0.76775031    0.27040000
opls_146-202    H    0.11371007    0.90741025    0.79794023    0.24500000
opls_910-203    H    0.16138982    0.00962995    0.88904064    0.26530000
opls_702-204    H    0.35395012    0.92218994    0.74179025    0.12120000
opls_702-205    H    0.32683990    0.85197001    0.90626030    0.12230000
opls_702-206    H    0.32873026    0.93217025    0.96658986    0.12490000
opls_144-207    H    0.15552009    0.54265016    0.65781036    0.10490000
opls_910-208    H    0.01963991    0.66343009    0.76775031    0.27040000
opls_146-209    H    0.21962996    0.75926981    0.79794023    0.24500000
opls_910-210    H    0.17194017    0.65703003    0.88904064    0.26530000
opls_702-211    H    0.97938992    0.74448007    0.74179025    0.11970000
opls_702-212    H    0.00649009    0.81468996    0.90626030    0.12230000
opls_702-213    H    0.00459999    0.73449025    0.96658986    0.12480000
opls_144-214    H    0.87597987    0.05378989    0.65781036    0.10490000
opls_910-215    H    0.99677021    0.31046025    0.76775031    0.27040000
opls_146-216    H    0.09259019    0.20630008    0.79794023    0.24500000
opls_910-217    H    0.99037005    0.15175979    0.88904064    0.26540000
opls_702-218    H    0.07780991    0.43176017    0.74179025    0.12120000
opls_702-219    H    0.14803012    0.47487008    0.90626030    0.12230000
opls_702-220    H    0.06783023    0.39656011    0.96658986    0.12480000
opls_144-221    H    0.45735012    0.61287009    0.65781036    0.10490000
opls_910-222    H    0.33656983    0.35620977    0.76775031    0.27050000
opls_146-223    H    0.24072972    0.46035990    0.79794023    0.24500000
opls_910-224    H    0.34296999    0.51491022    0.88904064    0.26530000
opls_702-225    H    0.25552006    0.23490984    0.74179025    0.11960000
opls_702-226    H    0.18530992    0.19179993    0.90626030    0.12230000
opls_702-227    H    0.26550981    0.27010991    0.96658986    0.12480000
