#======================================================================
# Crystal Data Generated By AuToFF
#----------------------------------------------------------------------

data_AuToFF_phase_1

_cell_length_a                         32.3991
_cell_length_b                         32.3991
_cell_length_c                         7.8008
_cell_angle_alpha                      90.00
_cell_angle_beta                       90.00
_cell_angle_gamma                      120.00
_symmetry_space_group_name_H-M_alt     'P 1'
_symmetry_space_group_IT_number        1

loop_
_space_group_symop_operation_xyz
   'x, y, z'

loop_
   _atom_site_label
   _atom_site_type_symbol
   _atom_site_fract_x
   _atom_site_fract_y
   _atom_site_fract_z
   _atom_site_charge
opls_916-0    C    0.61555983    0.31112991    0.07944954    0.18380000
opls_145-1    C    0.74032001    0.40716020    0.16116937    -0.16860000
opls_145-2    C    0.76729006    0.45651006    0.17196057    -0.15680000
opls_145-3    C    0.75147993    0.48601989    0.10289970    0.22020000
opls_145-4    C    0.70743991    0.46352007    0.01790970    -0.16180000
opls_145-5    C    0.68018006    0.41414990    0.00601990    -0.17110000
opls_142-6    C    0.79828000    0.22978006    0.07477054    0.08190000
opls_700-7    C    0.81513993    0.19744006    0.12221054    0.06280000
opls_145-8    C    0.84439997    0.63256011    0.21869936    -0.11770000
opls_145-9    C    0.87408011    0.67987992    0.26175008    -0.11810000
opls_916-10    C    0.28223008    0.64445992    0.41277946    0.18360000
opls_145-11    C    0.40698995    0.74049021    0.49450056    -0.16860000
opls_145-12    C    0.43396000    0.78984006    0.50529048    -0.15680000
opls_145-13    C    0.41815005    0.81935026    0.43622962    0.22020000
opls_145-14    C    0.37411016    0.79685007    0.35123962    -0.16190000
opls_145-15    C    0.34685019    0.74748026    0.33934981    -0.17110000
opls_142-16    C    0.46494994    0.56311007    0.40810045    0.08190000
opls_700-17    C    0.48181018    0.53077006    0.45554046    0.06290000
opls_145-18    C    0.51106992    0.96589012    0.55203056    -0.11770000
opls_145-19    C    0.54075005    0.01320993    0.59507999    -0.11820000
opls_916-20    C    0.94889007    0.97780026    0.74611963    0.18390000
opls_145-21    C    0.07364989    0.07382984    0.82783945    -0.16860000
opls_145-22    C    0.10062012    0.12318005    0.83862937    -0.15680000
opls_145-23    C    0.08480999    0.15268989    0.76956979    0.22020000
opls_145-24    C    0.04076997    0.13019006    0.68457979    -0.16180000
opls_145-25    C    0.01350981    0.08081989    0.67268998    -0.17110000
opls_142-26    C    0.13161006    0.89645005    0.74144062    0.08190000
opls_700-27    C    0.14846999    0.86411005    0.78888063    0.06280000
opls_145-28    C    0.17773003    0.29923011    0.88536945    -0.11770000
opls_145-29    C    0.20740986    0.34654992    0.92842016    -0.11810000
opls_916-30    C    0.68887001    0.30442997    0.07944954    0.18380000
opls_145-31    C    0.59283999    0.33316000    0.16116937    -0.16860000
opls_145-32    C    0.54348994    0.31077993    0.17196057    -0.15680000
opls_145-33    C    0.51398003    0.26545988    0.10289970    0.22020000
opls_145-34    C    0.53647994    0.24392019    0.01790970    -0.16190000
opls_145-35    C    0.58585017    0.26603011    0.00601990    -0.17110000
opls_142-36    C    0.77022010    0.56850024    0.07477054    0.08190000
opls_700-37    C    0.80256004    0.61770006    0.12221054    0.06290000
opls_145-38    C    0.36743992    0.21184000    0.21869936    -0.11770000
opls_145-39    C    0.32012010    0.19420003    0.26175008    -0.11810000
opls_916-40    C    0.35553996    0.63775998    0.41277946    0.18460000
opls_145-41    C    0.25950993    0.66649001    0.49450056    -0.16860000
opls_145-42    C    0.21015988    0.64410994    0.50529048    -0.15680000
opls_145-43    C    0.18065015    0.59879024    0.43622962    0.22020000
opls_145-44    C    0.20315019    0.57725020    0.35123962    -0.16190000
opls_145-45    C    0.25252011    0.59936012    0.33934981    -0.17110000
opls_142-46    C    0.43689004    0.90183025    0.40810045    0.08190000
opls_700-47    C    0.46922998    0.95103006    0.45554046    0.06300000
opls_145-48    C    0.03410986    0.54517001    0.55203056    -0.11770000
opls_145-49    C    0.98679004    0.52753004    0.59507999    -0.11810000
opls_916-50    C    0.02220007    0.97109996    0.74611963    0.18380000
opls_145-51    C    0.92617005    0.99983000    0.82783945    -0.16860000
opls_145-52    C    0.87682018    0.97745028    0.83862937    -0.15680000
opls_145-53    C    0.84730996    0.93213023    0.76956979    0.22020000
opls_145-54    C    0.86981000    0.91059018    0.68457979    -0.16190000
opls_145-55    C    0.91917992    0.93270011    0.67268998    -0.17110000
opls_142-56    C    0.10354998    0.23516988    0.74144062    0.08190000
opls_700-57    C    0.13589010    0.28437005    0.78888063    0.06290000
opls_145-58    C    0.70076998    0.87851000    0.88536945    -0.11770000
opls_145-59    C    0.65345016    0.86087003    0.92842016    -0.11810000
opls_916-60    C    0.69557015    0.38444012    0.07944954    0.18380000
opls_145-61    C    0.66684018    0.25968015    0.16116937    -0.16860000
opls_145-62    C    0.68921999    0.23271002    0.17196057    -0.15680000
opls_145-63    C    0.73453985    0.24851987    0.10289970    0.22020000
opls_145-64    C    0.75608001    0.29256010    0.01790970    -0.16190000
opls_145-65    C    0.73397008    0.31981999    0.00601990    -0.17110000
opls_142-66    C    0.43150008    0.20172005    0.07477054    0.08190000
opls_700-67    C    0.38230003    0.18485989    0.12221054    0.06280000
opls_145-68    C    0.78815980    0.15559988    0.21869936    -0.11770000
opls_145-69    C    0.80580010    0.12592004    0.26175008    -0.11810000
opls_916-70    C    0.36224009    0.71777013    0.41277946    0.18380000
opls_145-71    C    0.33351012    0.59301016    0.49450056    -0.16860000
opls_145-72    C    0.35588994    0.56604002    0.50529048    -0.15680000
opls_145-73    C    0.40120997    0.58185024    0.43622962    0.22020000
opls_145-74    C    0.42274996    0.62589011    0.35123962    -0.16190000
opls_145-75    C    0.40064002    0.65315000    0.33934981    -0.17110000
opls_142-76    C    0.09817002    0.53505006    0.40810045    0.08190000
opls_700-77    C    0.04896997    0.51818989    0.45554046    0.06290000
opls_145-78    C    0.45483005    0.48892989    0.55203056    -0.11770000
opls_145-79    C    0.47247004    0.45925005    0.59507999    -0.11810000
opls_916-80    C    0.02889990    0.05111011    0.74611963    0.18380000
opls_145-81    C    0.00016993    0.92635015    0.82783945    -0.16860000
opls_145-82    C    0.02255005    0.89938001    0.83862937    -0.15680000
opls_145-83    C    0.06787009    0.91519022    0.76956979    0.22020000
opls_145-84    C    0.08941007    0.95923009    0.68457979    -0.16190000
opls_145-85    C    0.06730014    0.98648998    0.67268998    -0.17110000
opls_142-86    C    0.76483013    0.86839005    0.74144062    0.08190000
opls_700-87    C    0.71563027    0.85153023    0.78888063    0.06280000
opls_145-88    C    0.12149003    0.82227023    0.88536945    -0.11770000
opls_145-89    C    0.13913016    0.79259004    0.92842016    -0.11810000
opls_916-90    C    0.38444017    0.68887009    0.92055046    0.18380000
opls_145-91    C    0.25968017    0.59284016    0.83883063    -0.16860000
opls_145-92    C    0.23270994    0.54348994    0.82803943    -0.15680000
opls_145-93    C    0.24852007    0.51398011    0.89710030    0.22020000
opls_145-94    C    0.29256009    0.53647993    0.98209030    -0.16190000
opls_145-95    C    0.31981994    0.58585010    0.99398010    -0.17110000
opls_142-96    C    0.20172000    0.77021994    0.92522946    0.08190000
opls_700-97    C    0.18486007    0.80255994    0.87778946    0.06280000
opls_145-98    C    0.15560003    0.36743989    0.78130064    -0.11770000
opls_145-99    C    0.12591989    0.32012008    0.73824992    -0.11810000
opls_916-100    C    0.05111011    0.02220009    0.25388037    0.18380000
opls_145-101    C    0.92635011    0.92617016    0.17216055    -0.16860000
opls_145-102    C    0.89937988    0.87681995    0.16137063    -0.15680000
opls_145-103    C    0.91519001    0.84731011    0.23043021    0.22020000
opls_145-104    C    0.95923003    0.86980994    0.31542021    -0.16190000
opls_145-105    C    0.98649019    0.91918011    0.32731002    -0.17110000
opls_142-106    C    0.86838994    0.10354995    0.25855938    0.08190000
opls_700-107    C    0.85153001    0.13588995    0.21111937    0.06280000
opls_145-108    C    0.82227015    0.70077025    0.11463055    -0.11770000
opls_145-109    C    0.79259014    0.65345008    0.07157984    -0.11810000
opls_916-110    C    0.71776992    0.35554008    0.58722054    0.18360000
opls_145-111    C    0.59301023    0.25951015    0.50549944    -0.16860000
opls_145-112    C    0.56604000    0.21015994    0.49470952    -0.15680000
opls_145-113    C    0.58185012    0.18065010    0.56377038    0.22030000
opls_145-114    C    0.62588984    0.20314993    0.64876038    -0.16190000
opls_145-115    C    0.65314999    0.25252010    0.66065019    -0.17110000
opls_142-116    C    0.53505006    0.43688993    0.59189955    0.08190000
opls_700-117    C    0.51818982    0.46922994    0.54445954    0.06290000
opls_145-118    C    0.48893008    0.03410988    0.44796944    -0.11770000
opls_145-119    C    0.45924995    0.98679007    0.40492001    -0.11820000
opls_916-120    C    0.31112999    0.69557003    0.92055046    0.18380000
opls_145-121    C    0.40716001    0.66684000    0.83883063    -0.16860000
opls_145-122    C    0.45651006    0.68922007    0.82803943    -0.15680000
opls_145-123    C    0.48601997    0.73454012    0.89710030    0.22020000
opls_145-124    C    0.46352024    0.75608017    0.98209030    -0.16190000
opls_145-125    C    0.41415001    0.73397024    0.99398010    -0.17100000
opls_142-126    C    0.22978008    0.43150011    0.92522946    0.08190000
opls_700-127    C    0.19743996    0.38229994    0.87778946    0.06290000
opls_145-128    C    0.63256008    0.78816000    0.78130064    -0.11770000
opls_145-129    C    0.67987990    0.80579997    0.73824992    -0.11810000
opls_916-130    C    0.97779993    0.02890004    0.25388037    0.18390000
opls_145-131    C    0.07382995    0.00017000    0.17216055    -0.16860000
opls_145-132    C    0.12318000    0.02255008    0.16137063    -0.15680000
opls_145-133    C    0.15269022    0.06787013    0.23043021    0.22020000
opls_145-134    C    0.13019018    0.08941017    0.31542021    -0.16190000
opls_145-135    C    0.08082008    0.06729989    0.32731002    -0.17110000
opls_142-136    C    0.89645002    0.76483012    0.25855938    0.08190000
opls_700-137    C    0.86410990    0.71562995    0.21111937    0.06290000
opls_145-138    C    0.29923002    0.12149000    0.11463055    -0.11770000
opls_145-139    C    0.34654984    0.13912997    0.07157984    -0.11810000
opls_916-140    C    0.64446004    0.36224002    0.58722054    0.18460000
opls_145-141    C    0.74049007    0.33350999    0.50549944    -0.16860000
opls_145-142    C    0.78984012    0.35589006    0.49470952    -0.15680000
opls_145-143    C    0.81935002    0.40121012    0.56377038    0.22020000
opls_145-144    C    0.79684999    0.42275016    0.64876038    -0.16190000
opls_145-145    C    0.74747989    0.40063988    0.66065019    -0.17110000
opls_142-146    C    0.56311013    0.09817010    0.59189955    0.08190000
opls_700-147    C    0.53077002    0.04896994    0.54445954    0.06300000
opls_145-148    C    0.96589014    0.45482999    0.44796944    -0.11770000
opls_145-149    C    0.01320996    0.47246996    0.40492001    -0.11810000
opls_916-150    C    0.30443003    0.61556024    0.92055046    0.18380000
opls_145-151    C    0.33316000    0.74032020    0.83883063    -0.16860000
opls_145-152    C    0.31078001    0.76728998    0.82803943    -0.15680000
opls_145-153    C    0.26546015    0.75148013    0.89710030    0.22020000
opls_145-154    C    0.24392016    0.70744026    0.98209030    -0.16190000
opls_145-155    C    0.26602992    0.68018001    0.99398010    -0.17110000
opls_142-156    C    0.56849992    0.79827995    0.92522946    0.08190000
opls_700-157    C    0.61769997    0.81514011    0.87778946    0.06290000
opls_145-158    C    0.21184020    0.84440012    0.78130064    -0.11770000
opls_145-159    C    0.19419990    0.87407996    0.73824992    -0.11810000
opls_916-160    C    0.97110028    0.94889024    0.25388037    0.18380000
opls_145-161    C    0.99983007    0.07364985    0.17216055    -0.16860000
opls_145-162    C    0.97744995    0.10061999    0.16137063    -0.15670000
opls_145-163    C    0.93213009    0.08481013    0.23043021    0.22030000
opls_145-164    C    0.91058993    0.04076991    0.31542021    -0.16190000
opls_145-165    C    0.93269986    0.01351002    0.32731002    -0.17110000
opls_142-166    C    0.23516987    0.13160995    0.25855938    0.08190000
opls_700-167    C    0.28436991    0.14847012    0.21111937    0.06280000
opls_145-168    C    0.87851014    0.17773012    0.11463055    -0.11770000
opls_145-169    C    0.86086984    0.20740996    0.07157984    -0.11800000
opls_916-170    C    0.63775991    0.28222987    0.58722054    0.18380000
opls_145-171    C    0.66649006    0.40699020    0.50549944    -0.16860000
opls_145-172    C    0.64411006    0.43395998    0.49470952    -0.15680000
opls_145-173    C    0.59879021    0.41815012    0.56377038    0.22020000
opls_145-174    C    0.57725004    0.37410989    0.64876038    -0.16190000
opls_145-175    C    0.59935998    0.34685000    0.66065019    -0.17110000
opls_142-176    C    0.90182998    0.46494994    0.59189955    0.08190000
opls_700-177    C    0.95103003    0.48181011    0.54445954    0.06290000
opls_145-178    C    0.54516995    0.51107011    0.44796944    -0.11770000
opls_145-179    C    0.52752996    0.54074995    0.40492001    -0.11810000
opls_750-180    N    0.77944020    0.53570013    0.12366937    -0.26650000
opls_750-181    N    0.44611014    0.86903014    0.45700056    -0.26180000
opls_750-182    N    0.11276995    0.20237012    0.79033945    -0.26180000
opls_750-183    N    0.46429999    0.24374021    0.12366937    -0.26180000
opls_750-184    N    0.13097024    0.57707021    0.45700056    -0.26180000
opls_750-185    N    0.79763004    0.91041020    0.79033945    -0.26180000
opls_750-186    N    0.75625999    0.22056002    0.12366937    -0.26180000
opls_750-187    N    0.42292993    0.55389002    0.45700056    -0.26170000
opls_750-188    N    0.08959005    0.88723001    0.79033945    -0.26180000
opls_750-189    N    0.22055998    0.46430022    0.87633063    -0.26180000
opls_750-190    N    0.88723023    0.79763023    0.20966055    -0.26180000
opls_750-191    N    0.55388986    0.13096986    0.54299944    -0.26180000
opls_750-192    N    0.53570019    0.75626015    0.87633063    -0.26180000
opls_750-193    N    0.20237013    0.08959016    0.20966055    -0.26180000
opls_750-194    N    0.86902994    0.42293014    0.54299944    -0.26180000
opls_750-195    N    0.24374001    0.77943998    0.87633063    -0.26180000
opls_750-196    N    0.91040995    0.11276999    0.20966055    -0.26180000
opls_750-197    N    0.57707007    0.44610998    0.54299944    -0.26180000
opls_239-198    N    0.66666994    0.33333001    0.07382961    -0.12600000
opls_239-199    N    0.33333006    0.66666999    0.40715952    -0.12590000
opls_239-200    N    0.00000000    0.00000000    0.74049969    -0.12600000
opls_239-201    N    0.33333006    0.66666999    0.92617039    -0.12600000
opls_239-202    N    0.00000000    1.00000000    0.25950031    -0.12600000
opls_239-203    N    0.66666994    0.33333001    0.59284048    -0.12600000
opls_146-204    H    0.75410019    0.38594020    0.22308994    0.08270000
opls_146-205    H    0.80158991    0.47227002    0.23998949    0.12700000
opls_146-206    H    0.69298981    0.48447989    0.95944006    0.07120000
opls_146-207    H    0.64595985    0.39838993    0.93692955    0.10400000
opls_144-208    H    0.82291009    0.26191014    0.00208056    0.07350000
opls_146-209    H    0.85443013    0.60654014    0.26273972    0.08050000
opls_146-210    H    0.90614995    0.68900017    0.33747949    0.11450000
opls_146-211    H    0.42077014    0.71927021    0.55641985    0.08270000
opls_146-212    H    0.46826016    0.80560003    0.57331940    0.12700000
opls_146-213    H    0.35966024    0.81781026    0.29276997    0.07120000
opls_146-214    H    0.31263010    0.73171994    0.27025946    0.10400000
opls_144-215    H    0.48958004    0.59524015    0.33541047    0.07350000
opls_146-216    H    0.52110007    0.93987014    0.59606963    0.08050000
opls_146-217    H    0.57282020    0.02233018    0.67080940    0.11450000
opls_146-218    H    0.08742977    0.05260984    0.88976002    0.08270000
opls_146-219    H    0.13491997    0.13894001    0.90665957    0.12700000
opls_146-220    H    0.02631987    0.15114989    0.62611014    0.07120000
opls_146-221    H    0.97928990    0.06505992    0.60359963    0.10500000
opls_144-222    H    0.15624015    0.92858013    0.66874936    0.07350000
opls_146-223    H    0.18776019    0.27321013    0.92940980    0.08050000
opls_146-224    H    0.23948001    0.35567017    0.00414957    0.11450000
opls_146-225    H    0.61406024    0.36816017    0.22308994    0.08270000
opls_146-226    H    0.52773004    0.32932016    0.23998949    0.12710000
opls_146-227    H    0.51552021    0.20851017    0.95944006    0.07120000
opls_146-228    H    0.60161004    0.24757007    0.93692955    0.10500000
opls_144-229    H    0.73808996    0.56100018    0.00208056    0.07350000
opls_146-230    H    0.39345995    0.24789012    0.26273972    0.08050000
opls_146-231    H    0.31100006    0.21714999    0.33747949    0.11450000
opls_146-232    H    0.28073018    0.70149018    0.55641985    0.08270000
opls_146-233    H    0.19439998    0.66265017    0.57331940    0.12710000
opls_146-234    H    0.18219015    0.54184017    0.29276997    0.07120000
opls_146-235    H    0.26827998    0.58090008    0.27025946    0.10500000
opls_144-236    H    0.40476021    0.89433019    0.33541047    0.07350000
opls_146-237    H    0.06013020    0.58122012    0.59606963    0.08050000
opls_146-238    H    0.97767000    0.55048000    0.67080940    0.11450000
opls_146-239    H    0.94738999    0.03483016    0.88976002    0.08270000
opls_146-240    H    0.86106010    0.99599015    0.90665957    0.12700000
opls_146-241    H    0.84884996    0.87518016    0.62611014    0.07120000
opls_146-242    H    0.93494010    0.91424006    0.60359963    0.10400000
opls_144-243    H    0.07142002    0.22767018    0.66874936    0.07350000
opls_146-244    H    0.72679001    0.91456011    0.92940980    0.08050000
opls_146-245    H    0.64433012    0.88381998    0.00414957    0.11450000
opls_146-246    H    0.63184005    0.24589999    0.22308994    0.08270000
opls_146-247    H    0.67068022    0.19841018    0.23998949    0.12700000
opls_146-248    H    0.79148998    0.30700994    0.95944006    0.07120000
opls_146-249    H    0.75243012    0.35404000    0.93692955    0.10400000
opls_144-250    H    0.43900012    0.17709003    0.00208056    0.07350000
opls_146-251    H    0.75211009    0.14557010    0.26273972    0.08050000
opls_146-252    H    0.78284999    0.09384984    0.33747949    0.11460000
opls_146-253    H    0.29851000    0.57922999    0.55641985    0.08270000
opls_146-254    H    0.33735016    0.53174018    0.57331940    0.12700000
opls_146-255    H    0.45815992    0.64033995    0.29276997    0.07120000
opls_146-256    H    0.41910006    0.68737000    0.27025946    0.10400000
opls_144-257    H    0.10567006    0.51042004    0.33541047    0.07350000
opls_146-258    H    0.41878004    0.47890011    0.59606963    0.08050000
opls_146-259    H    0.44952011    0.42718020    0.67080940    0.11450000
opls_146-260    H    0.96517011    0.91256998    0.88976002    0.08270000
opls_146-261    H    0.00400997    0.86508017    0.90665957    0.12700000
opls_146-262    H    0.12482021    0.97368029    0.62611014    0.07120000
opls_146-263    H    0.08575987    0.02070999    0.60359963    0.10400000
opls_144-264    H    0.77232987    0.84376002    0.66874936    0.07350000
opls_146-265    H    0.08544015    0.81224010    0.92940980    0.08050000
opls_146-266    H    0.11618023    0.76052019    0.00414957    0.11450000
opls_146-267    H    0.24589998    0.61406015    0.77691006    0.08270000
opls_146-268    H    0.19841009    0.52772998    0.76001051    0.12710000
opls_146-269    H    0.30701019    0.51552011    0.04055994    0.07120000
opls_146-270    H    0.35404015    0.60161007    0.06307045    0.10400000
opls_144-271    H    0.17709008    0.73809021    0.99791944    0.07350000
opls_146-272    H    0.14557005    0.39346022    0.73726028    0.08050000
opls_146-273    H    0.09385023    0.31100018    0.66252051    0.11450000
opls_146-274    H    0.91257023    0.94739016    0.11023998    0.08270000
opls_146-275    H    0.86508003    0.86105999    0.09334043    0.12700000
opls_146-276    H    0.97368013    0.84885011    0.37388986    0.07120000
opls_146-277    H    0.02071010    0.93494008    0.39640037    0.10500000
opls_144-278    H    0.84375985    0.07141987    0.33124936    0.07350000
opls_146-279    H    0.81223999    0.72679023    0.07059020    0.08060000
opls_146-280    H    0.76052017    0.64433019    0.99585043    0.11450000
opls_146-281    H    0.57923004    0.28073015    0.44358015    0.08270000
opls_146-282    H    0.53173984    0.19439997    0.42668060    0.12700000
opls_146-283    H    0.64033994    0.18219010    0.70723003    0.07120000
opls_146-284    H    0.68736990    0.26828006    0.72974054    0.10500000
opls_144-285    H    0.51042014    0.40476021    0.66458953    0.07350000
opls_146-286    H    0.47889993    0.06012986    0.40393037    0.08050000
opls_146-287    H    0.42717998    0.97767018    0.32919060    0.11450000
opls_146-288    H    0.38593994    0.63184019    0.77691006    0.08270000
opls_146-289    H    0.47227014    0.67068019    0.76001051    0.12700000
opls_146-290    H    0.48447997    0.79149019    0.04055994    0.07120000
opls_146-291    H    0.39838996    0.75242993    0.06307045    0.10500000
opls_144-292    H    0.26191021    0.43900017    0.99791944    0.07350000
opls_146-293    H    0.60654023    0.75211024    0.73726028    0.08050000
opls_146-294    H    0.68899994    0.78285001    0.66252051    0.11460000
opls_146-295    H    0.05261001    0.96516984    0.11023998    0.08270000
opls_146-296    H    0.13893990    0.00400985    0.09334043    0.08690000
opls_146-297    H    0.15115004    0.12481984    0.37388986    0.07120000
opls_146-298    H    0.06505990    0.08575994    0.39640037    0.10400000
opls_144-299    H    0.92858016    0.77233018    0.33124936    0.07350000
opls_146-300    H    0.27320999    0.08543989    0.07059020    0.08050000
opls_146-301    H    0.35566988    0.11618002    0.99585043    0.11450000
opls_146-302    H    0.71927000    0.29851018    0.44358015    0.08270000
opls_146-303    H    0.80560019    0.33735019    0.42668060    0.12700000
opls_146-304    H    0.81781003    0.45816018    0.70723003    0.07120000
opls_146-305    H    0.73172002    0.41909992    0.72974054    0.10500000
opls_144-306    H    0.59523996    0.10567017    0.66458953    0.07350000
opls_146-307    H    0.93986997    0.41878023    0.40393037    0.08050000
opls_146-308    H    0.02233000    0.44952000    0.32919060    0.11450000
opls_146-309    H    0.36815995    0.75410001    0.77691006    0.08270000
opls_146-310    H    0.32931996    0.80159018    0.76001051    0.12700000
opls_146-311    H    0.20851002    0.69299006    0.04055994    0.07120000
opls_146-312    H    0.24756988    0.64596000    0.06307045    0.10410000
opls_144-313    H    0.56099988    0.82290997    0.99791944    0.07350000
opls_146-314    H    0.24789008    0.85443025    0.73726028    0.08050000
opls_146-315    H    0.21715001    0.90615016    0.66252051    0.11450000
opls_146-316    H    0.03482989    0.08743002    0.11023998    0.08270000
opls_146-317    H    0.99599021    0.13492019    0.09334043    0.08690000
opls_146-318    H    0.87517997    0.02632007    0.37388986    0.07120000
opls_146-319    H    0.91424013    0.97929001    0.39640037    0.10400000
opls_144-320    H    0.22767013    0.15623998    0.33124936    0.07350000
opls_146-321    H    0.91455985    0.18775990    0.07059020    0.08050000
opls_146-322    H    0.88381995    0.23948017    0.99585043    0.11450000
opls_146-323    H    0.70149000    0.42077001    0.44358015    0.08270000
opls_146-324    H    0.66265002    0.46826017    0.42668060    0.12700000
opls_146-325    H    0.54184008    0.35966005    0.70723003    0.07120000
opls_146-326    H    0.58089994    0.31263000    0.72974054    0.10400000
opls_144-327    H    0.89432994    0.48957996    0.66458953    0.07350000
opls_146-328    H    0.58121996    0.52109989    0.40393037    0.08050000
opls_146-329    H    0.55048007    0.57282016    0.32919060    0.11450000
