#======================================================================
# Crystal Data Generated By AuToFF
#----------------------------------------------------------------------

data_AuToFF_phase_1

_cell_length_a                         37.1576
_cell_length_b                         37.1576
_cell_length_c                         4.3560
_cell_angle_alpha                      90.00
_cell_angle_beta                       90.00
_cell_angle_gamma                      120.00
_symmetry_space_group_name_H-M_alt     'P 1'
_symmetry_space_group_IT_number        1

loop_
_space_group_symop_operation_xyz
   'x, y, z'

loop_
   _atom_site_label
   _atom_site_type_symbol
   _atom_site_fract_x
   _atom_site_fract_y
   _atom_site_fract_z
   _atom_site_charge
opls_145-0    C    0.29121985    0.63619990    0.92339073    -0.18350000
opls_700-1    C    0.30262008    0.67836006    0.92429063    0.06570000
opls_142-2    C    0.31014000    0.58007988    0.94587925    0.06720000
opls_700-3    C    0.22503991    0.42068986    0.04954086    0.06160000
opls_145-4    C    0.26009990    0.45044987    0.21300046    -0.12100000
opls_145-5    C    0.27652000    0.49295000    0.16261938    -0.17010000
opls_145-6    C    0.25750978    0.50702980    0.95367998    0.18480000
opls_145-7    C    0.22203987    0.47786987    0.79620064    -0.17280000
opls_145-8    C    0.20651990    0.43526998    0.83770891    -0.13460000
opls_145-9    C    0.65069000    0.81364990    0.09205005    -0.12250000
opls_145-10    C    0.69298006    0.83682993    0.15533058    -0.11510000
opls_700-11    C    0.71115997    0.87831978    0.24797980    -0.03170000
opls_166-12    C    0.68610999    0.89685989    0.27570937    0.26160000
opls_166-13    C    0.64368993    0.87414973    0.19339991    0.26450000
opls_700-14    C    0.62510990    0.83150976    0.10798898    -0.00560000
opls_700-15    C    0.75647993    0.90163996    0.30943067    0.06050000
opls_182-16    C    0.60774008    0.90308001    0.93320937    -0.02030000
opls_145-17    C    0.77450975    0.88556976    0.51072084    -0.13360000
opls_145-18    C    0.81763985    0.90610990    0.55224059    -0.18180000
opls_145-19    C    0.84345987    0.94321994    0.39258035    0.18620000
opls_145-20    C    0.82538982    0.95921991    0.19328972    -0.16740000
opls_145-21    C    0.78245998    0.93810984    0.14606061    -0.11990000
opls_182-22    C    0.71613011    0.97102000    0.23458907    -0.02140000
opls_182-23    C    0.70004994    0.99942976    0.34469008    -0.02840000
opls_182-24    C    0.64703012    0.00951011    0.16095960    -0.02320000
opls_182-25    C    0.60073990    0.98822975    0.08564050    -0.02540000
opls_182-26    C    0.57598978    0.91722973    0.99115014    -0.03110000
opls_145-27    C    0.97594001    0.01934994    0.52629017    -0.18220000
opls_700-28    C    0.95628995    0.97572984    0.52477961    0.06570000
opls_142-29    C    0.91053993    0.94970980    0.51095041    0.06810000
opls_145-30    C    0.36380002    0.65501999    0.92339073    -0.18350000
opls_700-31    C    0.32164002    0.62425997    0.92429063    0.06570000
opls_142-32    C    0.41991991    0.73005986    0.94587925    0.06720000
opls_700-33    C    0.57930989    0.80434986    0.04954086    0.06160000
opls_145-34    C    0.54954982    0.80964983    0.21300046    -0.12100000
opls_145-35    C    0.50704989    0.78356981    0.16261938    -0.17010000
opls_145-36    C    0.49296991    0.75048004    0.95367998    0.18480000
opls_145-37    C    0.52212984    0.74416980    0.79620064    -0.17280000
opls_145-38    C    0.56472986    0.77124983    0.83770891    -0.13460000
opls_145-39    C    0.18635000    0.83704000    0.09205005    -0.12250000
opls_145-40    C    0.16317012    0.85615003    0.15533058    -0.11510000
opls_700-41    C    0.12167993    0.83283980    0.24797980    -0.03170000
opls_166-42    C    0.10314000    0.78924984    0.27570937    0.26160000
opls_166-43    C    0.12584991    0.76954004    0.19339991    0.26450000
opls_700-44    C    0.16848996    0.79359982    0.10798898    -0.00560000
opls_700-45    C    0.09835993    0.85483988    0.30943067    0.06050000
opls_182-46    C    0.09691996    0.70465978    0.93320937    -0.02030000
opls_145-47    C    0.11443008    0.88893992    0.51072084    -0.13360000
opls_145-48    C    0.09388982    0.91152982    0.55224059    -0.18180000
opls_145-49    C    0.05678001    0.90024000    0.39258035    0.18620000
opls_145-50    C    0.04077995    0.86616979    0.19328972    -0.16740000
opls_145-51    C    0.06188986    0.84434995    0.14606061    -0.11990000
opls_182-52    C    0.02897999    0.74510984    0.23458907    -0.02140000
opls_182-53    C    0.00056994    0.70061993    0.34469008    -0.02840000
opls_182-54    C    0.99048987    0.63751999    0.16095960    -0.02320000
opls_182-55    C    0.01176985    0.61250992    0.08564050    -0.02540000
opls_182-56    C    0.08276986    0.65875996    0.99115014    -0.03110000
opls_145-57    C    0.98065009    0.95658997    0.52629017    -0.18220000
opls_700-58    C    0.02427006    0.98055994    0.52477961    0.06570000
opls_142-59    C    0.05029005    0.96082995    0.51095041    0.06810000
opls_145-60    C    0.34497998    0.70877980    0.92339073    -0.18350000
opls_700-61    C    0.37573990    0.69737997    0.92429063    0.06570000
opls_142-62    C    0.26993993    0.68985995    0.94587925    0.06720000
opls_700-63    C    0.19565005    0.77495997    0.04954086    0.06160000
opls_145-64    C    0.19035013    0.73989999    0.21300046    -0.12100000
opls_145-65    C    0.21642996    0.72347988    0.16261938    -0.17010000
opls_145-66    C    0.24951989    0.74248985    0.95367998    0.18480000
opls_145-67    C    0.25583013    0.77796002    0.79620064    -0.17280000
opls_145-68    C    0.22874981    0.79347987    0.83770891    -0.13460000
opls_145-69    C    0.16296000    0.34931010    0.09205005    -0.12250000
opls_145-70    C    0.14385009    0.30702004    0.15533058    -0.11510000
opls_700-71    C    0.16715995    0.28884011    0.24797980    -0.03170000
opls_166-72    C    0.21074985    0.31388996    0.27570937    0.26160000
opls_166-73    C    0.23046000    0.35630992    0.19339991    0.26450000
opls_700-74    C    0.20639984    0.37488980    0.10798898    -0.00560000
opls_700-75    C    0.14515998    0.24351985    0.30943067    0.06050000
opls_182-76    C    0.29534007    0.39225990    0.93320937    -0.02030000
opls_145-77    C    0.11106002    0.22549001    0.51072084    -0.13360000
opls_145-78    C    0.08846991    0.18235997    0.55224059    -0.18180000
opls_145-79    C    0.09976012    0.15654006    0.39258035    0.18620000
opls_145-80    C    0.13383007    0.17460999    0.19328972    -0.17540000
opls_145-81    C    0.15565000    0.21753990    0.14606061    -0.11990000
opls_182-82    C    0.25489001    0.28386985    0.23458907    -0.02140000
opls_182-83    C    0.29937997    0.29995000    0.34469008    -0.02840000
opls_182-84    C    0.36248001    0.35296989    0.16095960    -0.02320000
opls_182-85    C    0.38749010    0.39926002    0.08564050    -0.02540000
opls_182-86    C    0.34123993    0.42401000    0.99115014    -0.03110000
opls_145-87    C    0.04341017    0.02406009    0.52629017    -0.18220000
opls_700-88    C    0.01943984    0.04370991    0.52477961    0.06570000
opls_142-89    C    0.03916987    0.08945994    0.51095041    0.06810000
opls_750-90    N    0.27183016    0.55051006    0.91280992    -0.34770000
opls_750-91    N    0.88787988    0.96557988    0.42654959    -0.34760000
opls_750-92    N    0.44948991    0.72131980    0.91280992    -0.34770000
opls_750-93    N    0.03441994    0.92229974    0.42654959    -0.34760000
opls_750-94    N    0.27868004    0.72816983    0.91280992    -0.34770000
opls_750-95    N    0.07770002    0.11212007    0.42654959    -0.34750000
opls_179-96    O    0.70159003    0.93521980    0.42749082    -0.23100000
opls_179-97    O    0.62010003    0.89383000    0.21929982    -0.22960000
opls_180-98    O    0.65686000    0.98058977    0.28921028    -0.20600000
opls_180-99    O    0.58988979    0.95696972    0.86030992    -0.21420000
opls_179-100    O    0.06477989    0.76637001    0.42749082    -0.23090000
opls_179-101    O    0.10617000    0.72626986    0.21929982    -0.22960000
opls_180-102    O    0.01940985    0.67626990    0.28921028    -0.20600000
opls_180-103    O    0.04302999    0.63291985    0.86030992    -0.21420000
opls_179-104    O    0.23362993    0.29840988    0.42749082    -0.23100000
opls_179-105    O    0.27372981    0.37989983    0.21929982    -0.22960000
opls_180-106    O    0.32372999    0.34314001    0.28921028    -0.20600000
opls_180-107    O    0.36707990    0.41010981    0.86030992    -0.21420000
opls_146-108    H    0.25857986    0.61272993    0.92983930    0.11590000
opls_144-109    H    0.33441002    0.57267981    0.99034894    0.10560000
opls_146-110    H    0.27425982    0.44137979    0.38932048    0.10550000
opls_146-111    H    0.30284012    0.51468997    0.29879017    0.11740000
opls_146-112    H    0.20688005    0.48821001    0.63530992    0.11300000
opls_146-113    H    0.18011007    0.41385009    0.70089991    0.11690000
opls_146-114    H    0.63796999    0.78114000    0.03659091    0.11770000
opls_146-115    H    0.71163995    0.82199995    0.13528926    0.11570000
opls_185-116    H    0.59326009    0.87527995    0.78420110    0.05650000
opls_185-117    H    0.63546987    0.92753974    0.81115014    0.05690000
opls_146-118    H    0.75516999    0.85710996    0.63587925    0.11510000
opls_146-119    H    0.83044986    0.89335983    0.71345960    0.11840000
opls_146-120    H    0.84487999    0.98732979    0.06474977    0.11300000
opls_146-121    H    0.76977006    0.94934000    0.97174931    0.11930000
opls_185-122    H    0.70780988    0.96269977    0.98985078    0.05670000
opls_185-123    H    0.75049000    0.98924996    0.25232094    0.05680000
opls_185-124    H    0.71901982    0.03008972    0.22848026    0.05550000
opls_185-125    H    0.70577997    0.00499978    0.59460055    0.05660000
opls_185-126    H    0.66451014    0.02277014    0.94365014    0.05670000
opls_185-127    H    0.65455994    0.03511995    0.32685032    0.05670000
opls_185-128    H    0.59453994    0.01212980    0.98648072    0.05820000
opls_185-129    H    0.58152994    0.97734982    0.29769054    0.05650000
opls_185-130    H    0.56818995    0.91476978    0.24020891    0.05590000
opls_185-131    H    0.54640990    0.89505998    0.87553949    0.05700000
opls_146-132    H    0.95742013    0.03444001    0.52359045    0.11210000
opls_144-133    H    0.89651979    0.91666975    0.55045914    0.12000000
opls_146-134    H    0.38727004    0.64584985    0.92983930    0.11590000
opls_144-135    H    0.42731999    0.76172978    0.99034894    0.10560000
opls_146-136    H    0.55862001    0.83287989    0.38932048    0.10550000
opls_146-137    H    0.48530978    0.78814976    0.29879017    0.11740000
opls_146-138    H    0.51178993    0.71866997    0.63530992    0.11300000
opls_146-139    H    0.58615011    0.76626000    0.70089991    0.11690000
opls_146-140    H    0.21886001    0.85682997    0.03659091    0.11760000
opls_146-141    H    0.17799990    0.88963975    0.13528926    0.11210000
opls_185-142    H    0.12471991    0.71797978    0.78420110    0.05650000
opls_185-143    H    0.07245994    0.70792988    0.81115014    0.05690000
opls_146-144    H    0.14288980    0.89805972    0.63587925    0.11510000
opls_146-145    H    0.10664000    0.93708994    0.71345960    0.11840000
opls_146-146    H    0.01267008    0.85754999    0.06474977    0.11300000
opls_146-147    H    0.05066003    0.82043001    0.97174931    0.11930000
opls_185-148    H    0.03729995    0.74510984    0.98985078    0.05690000
opls_185-149    H    0.01075005    0.76124002    0.25232094    0.05680000
opls_185-150    H    0.96991006    0.68892985    0.22848026    0.05550000
opls_185-151    H    0.99499997    0.70077997    0.59460055    0.05660000
opls_185-152    H    0.97722982    0.64173977    0.94365014    0.05670000
opls_185-153    H    0.96487982    0.61943981    0.32685032    0.05670000
opls_185-154    H    0.98786999    0.58240994    0.98648072    0.05820000
opls_185-155    H    0.02265002    0.60418006    0.29769054    0.05650000
opls_185-156    H    0.08522988    0.65341990    0.24020891    0.05590000
opls_185-157    H    0.10494005    0.65134995    0.87553949    0.05700000
opls_146-158    H    0.96555996    0.92297999    0.52359045    0.11210000
opls_144-159    H    0.08333005    0.97984986    0.55045914    0.12000000
opls_146-160    H    0.35414995    0.74141991    0.92983930    0.11590000
opls_144-161    H    0.23826995    0.66558979    0.99034894    0.10560000
opls_146-162    H    0.16712001    0.72574001    0.38932048    0.10550000
opls_146-163    H    0.21184994    0.69715996    0.29879017    0.11740000
opls_146-164    H    0.28133001    0.79312001    0.63530992    0.11300000
opls_146-165    H    0.23374009    0.81988991    0.70089991    0.11690000
opls_146-166    H    0.14317000    0.36203003    0.03659091    0.11760000
opls_146-167    H    0.11035999    0.28835999    0.13528926    0.11570000
opls_185-168    H    0.28202011    0.40673996    0.78420110    0.05650000
opls_185-169    H    0.29207003    0.36453007    0.81115014    0.05690000
opls_146-170    H    0.10194005    0.24483000    0.63587925    0.11510000
opls_146-171    H    0.06290999    0.16954993    0.71345960    0.11840000
opls_146-172    H    0.14245004    0.15511990    0.06474977    0.11300000
opls_146-173    H    0.17956991    0.23022999    0.97174931    0.11930000
opls_185-174    H    0.25489001    0.29219007    0.98985078    0.05670000
opls_185-175    H    0.23875995    0.24951001    0.25232094    0.05680000
opls_185-176    H    0.31106981    0.28097981    0.22848026    0.05550000
opls_185-177    H    0.29921990    0.29421994    0.59460055    0.05660000
opls_185-178    H    0.35826004    0.33549009    0.94365014    0.05670000
opls_185-179    H    0.38056008    0.34543993    0.32685032    0.05670000
opls_185-180    H    0.41758992    0.40545995    0.98648072    0.05820000
opls_185-181    H    0.39581988    0.41846981    0.29769054    0.05650000
opls_185-182    H    0.34658002    0.43181001    0.24020891    0.05590000
opls_185-183    H    0.34865005    0.45359007    0.87553949    0.05700000
opls_146-184    H    0.07701992    0.04258000    0.52359045    0.11210000
opls_144-185    H    0.02015000    0.10348008    0.55045914    0.12000000
