#======================================================================
# Crystal Data Generated By AuToFF
#----------------------------------------------------------------------

data_AuToFF_phase_1

_cell_length_a                         44.0400
_cell_length_b                         44.0400
_cell_length_c                         4.2300
_cell_angle_alpha                      90.00
_cell_angle_beta                       90.00
_cell_angle_gamma                      120.00
_symmetry_space_group_name_H-M_alt     'P 1'
_symmetry_space_group_IT_number        1

loop_
_space_group_symop_operation_xyz
   'x, y, z'

loop_
   _atom_site_label
   _atom_site_type_symbol
   _atom_site_fract_x
   _atom_site_fract_y
   _atom_site_fract_z
   _atom_site_charge
opls_520-0    N    0.67705000    0.30951008    0.46011111    -0.49930000
opls_750-1    N    0.87263995    0.42173994    0.43433097    -0.32080000
opls_520-2    N    0.69049006    0.36754007    0.46011111    -0.49930000
opls_750-3    N    0.57825997    0.45090006    0.43433097    -0.32080000
opls_520-4    N    0.63246007    0.32295012    0.46011111    -0.49930000
opls_750-5    N    0.54910007    0.12736000    0.43433097    -0.32080000
opls_520-6    N    0.32295000    0.69048992    0.46011111    -0.49930000
opls_750-7    N    0.12736005    0.57826006    0.43433097    -0.32080000
opls_520-8    N    0.30950994    0.63245993    0.46011111    -0.49930000
opls_750-9    N    0.42174003    0.54909994    0.43433097    -0.32080000
opls_520-10    N    0.36753993    0.67704988    0.46011111    -0.49930000
opls_750-11    N    0.45089993    0.87264000    0.43433097    -0.32080000
opls_531-12    C    0.70195002    0.34403992    0.46000946    0.31880000
opls_700-13    C    0.73810994    0.35502006    0.45778960    0.01220000
opls_523-14    C    0.74993998    0.33044990    0.44603073    -0.18410000
opls_145-15    C    0.78589999    0.34139989    0.44060047    -0.18430000
opls_700-16    C    0.81153987    0.37737993    0.44673050    0.04640000
opls_145-17    C    0.79989014    0.40203006    0.46043972    -0.18430000
opls_523-18    C    0.76393005    0.39104992    0.46585106    -0.18410000
opls_142-19    C    0.84738988    0.38761990    0.43846099    0.10340000
opls_700-20    C    0.98179983    0.48786988    0.39987943    0.08200000
opls_145-21    C    0.95759999    0.49721996    0.28420095    -0.20810000
opls_145-22    C    0.92149006    0.47359003    0.30243972    -0.21380000
opls_145-23    C    0.90824996    0.43980009    0.43385106    0.16650000
opls_700-24    C    0.93216994    0.42933988    0.55086052    -0.21510000
opls_145-25    C    0.96861004    0.45385996    0.52647045    -0.10430000
opls_725-26    C    0.92117984    0.39463987    0.70370922    0.62740000
opls_531-27    C    0.65595998    0.35790996    0.46000946    0.31880000
opls_700-28    C    0.64498005    0.38308998    0.45778960    0.01220000
opls_523-29    C    0.66954998    0.41949005    0.44603073    -0.18410000
opls_145-30    C    0.65859987    0.44449991    0.44060047    -0.18430000
opls_700-31    C    0.62261999    0.43416005    0.44673050    0.04640000
opls_145-32    C    0.59796990    0.39785987    0.46043972    -0.18430000
opls_523-33    C    0.60894994    0.37287990    0.46585106    -0.18410000
opls_142-34    C    0.61238004    0.45977007    0.43846099    0.10340000
opls_700-35    C    0.51213006    0.49392996    0.39987943    0.08200000
opls_145-36    C    0.50277988    0.46037993    0.28420095    -0.20810000
opls_145-37    C    0.52641006    0.44790004    0.30243972    -0.21380000
opls_145-38    C    0.56020002    0.46844999    0.43385106    0.16650000
opls_700-39    C    0.57065993    0.50282986    0.55086052    -0.21510000
opls_145-40    C    0.54613997    0.51474996    0.52647045    -0.10430000
opls_725-41    C    0.60535993    0.52654002    0.70370922    0.62740000
opls_531-42    C    0.64209000    0.29805012    0.46000946    0.31880000
opls_700-43    C    0.61691001    0.26188995    0.45778960    0.01220000
opls_523-44    C    0.58051004    0.25006004    0.44603073    -0.18410000
opls_145-45    C    0.55550001    0.21409993    0.44060047    -0.18430000
opls_700-46    C    0.56583991    0.18846002    0.44673050    0.04640000
opls_145-47    C    0.60213996    0.20011007    0.46043972    -0.18430000
opls_523-48    C    0.62711988    0.23606992    0.46585106    -0.18410000
opls_142-49    C    0.54023008    0.15261003    0.43846099    0.10340000
opls_700-50    C    0.50606998    0.01819990    0.39987943    0.08200000
opls_145-51    C    0.53962013    0.04240011    0.28420095    -0.20810000
opls_145-52    C    0.55209988    0.07850993    0.30243972    -0.21380000
opls_145-53    C    0.53155003    0.09174992    0.43385106    0.16650000
opls_700-54    C    0.49717000    0.06783000    0.55086052    -0.21510000
opls_145-55    C    0.48524999    0.03139008    0.52647045    -0.10430000
opls_725-56    C    0.47346001    0.07882011    0.70370922    0.62740000
opls_531-57    C    0.29804998    0.65596008    0.46000946    0.31880000
opls_700-58    C    0.26189006    0.64497994    0.45778960    0.01220000
opls_523-59    C    0.25006002    0.66955010    0.44603073    -0.18410000
opls_145-60    C    0.21410001    0.65860011    0.44060047    -0.18430000
opls_700-61    C    0.18846013    0.62262007    0.44673050    0.04640000
opls_145-62    C    0.20011008    0.59796994    0.46043972    -0.18430000
opls_523-63    C    0.23606995    0.60895008    0.46585106    -0.18410000
opls_142-64    C    0.15261012    0.61238010    0.43846099    0.10340000
opls_700-65    C    0.01820004    0.51212986    0.39987943    0.08200000
opls_145-66    C    0.04240001    0.50278004    0.28420095    -0.20810000
opls_145-67    C    0.07850994    0.52640997    0.30243972    -0.21380000
opls_145-68    C    0.09175004    0.56019991    0.43385106    0.16650000
opls_700-69    C    0.06782993    0.57065986    0.55086052    -0.21500000
opls_145-70    C    0.03138996    0.54614004    0.52647045    -0.10430000
opls_725-71    C    0.07882003    0.60535987    0.70370922    0.62740000
opls_531-72    C    0.34404002    0.64209004    0.46000946    0.31880000
opls_700-73    C    0.35501995    0.61691002    0.45778960    0.01220000
opls_523-74    C    0.33045002    0.58050995    0.44603073    -0.18410000
opls_145-75    C    0.34140013    0.55550009    0.44060047    -0.18430000
opls_700-76    C    0.37738001    0.56583995    0.44673050    0.04640000
opls_145-77    C    0.40202997    0.60213987    0.46043972    -0.18430000
opls_523-78    C    0.39105006    0.62712010    0.46585106    -0.18410000
opls_142-79    C    0.38761996    0.54022993    0.43846099    0.10340000
opls_700-80    C    0.48786994    0.50607004    0.39987943    0.08200000
opls_145-81    C    0.49722012    0.53962007    0.28420095    -0.20810000
opls_145-82    C    0.47358994    0.55209996    0.30243972    -0.21380000
opls_145-83    C    0.43979998    0.53155001    0.43385106    0.16650000
opls_700-84    C    0.42933994    0.49716988    0.55086052    -0.21510000
opls_145-85    C    0.45386003    0.48525004    0.52647045    -0.10430000
opls_725-86    C    0.39464007    0.47345998    0.70370922    0.62740000
opls_531-87    C    0.35791000    0.70194988    0.46000946    0.31880000
opls_700-88    C    0.38308999    0.73811005    0.45778960    0.01220000
opls_523-89    C    0.41948996    0.74993996    0.44603073    -0.18410000
opls_145-90    C    0.44449999    0.78590007    0.44060047    -0.18430000
opls_700-91    C    0.43416009    0.81153998    0.44673050    0.04640000
opls_145-92    C    0.39786004    0.79988993    0.46043972    -0.18420000
opls_523-93    C    0.37288012    0.76393008    0.46585106    -0.18400000
opls_142-94    C    0.45976992    0.84738997    0.43846099    0.10340000
opls_700-95    C    0.49393002    0.98180010    0.39987943    0.08200000
opls_145-96    C    0.46037987    0.95759989    0.28420095    -0.20810000
opls_145-97    C    0.44790012    0.92149007    0.30243972    -0.21380000
opls_145-98    C    0.46844997    0.90825008    0.43385106    0.16650000
opls_700-99    C    0.50283000    0.93217000    0.55086052    -0.21510000
opls_145-100    C    0.51475001    0.96860992    0.52647045    -0.10430000
opls_725-101    C    0.52653999    0.92117989    0.70370922    0.62740000
opls_726-102    F    0.94672011    0.39358009    0.88308983    -0.25330000
opls_726-103    F    0.91145007    0.36856000    0.48372104    -0.24690000
opls_726-104    F    0.89393991    0.38533987    0.90835934    -0.24280000
opls_726-105    F    0.60641995    0.55314008    0.88308983    -0.25340000
opls_726-106    F    0.63143995    0.54288989    0.48372104    -0.24690000
opls_726-107    F    0.61465987    0.50859995    0.90835934    -0.24280000
opls_726-108    F    0.44686007    0.05328009    0.88308983    -0.25330000
opls_726-109    F    0.45710998    0.08855011    0.48372104    -0.24690000
opls_726-110    F    0.49139985    0.10605992    0.90835934    -0.24280000
opls_726-111    F    0.05327989    0.60641991    0.88308983    -0.25340000
opls_726-112    F    0.08854993    0.63144000    0.48372104    -0.24690000
opls_726-113    F    0.10605995    0.61465987    0.90835934    -0.24280000
opls_726-114    F    0.39358005    0.44685992    0.88308983    -0.25340000
opls_726-115    F    0.36856005    0.45711011    0.48372104    -0.24690000
opls_726-116    F    0.38534013    0.49140005    0.90835934    -0.24280000
opls_726-117    F    0.55313993    0.94671991    0.88308983    -0.25340000
opls_726-118    F    0.54289002    0.91144989    0.48372104    -0.24680000
opls_726-119    F    0.50860015    0.89394008    0.90835934    -0.24280000
opls_526-120    H    0.73250005    0.30409001    0.44047045    0.22490000
opls_146-121    H    0.79314989    0.32264991    0.43150118    0.22490000
opls_146-122    H    0.81744002    0.42836006    0.46639007    0.22490000
opls_526-123    H    0.75695007    0.40997007    0.47551064    0.22490000
opls_144-124    H    0.85418995    0.36868009    0.42905910    0.11010000
opls_146-125    H    0.96604990    0.52139998    0.18604965    0.22490000
opls_146-126    H    0.90483001    0.48159008    0.21686052    0.22500000
opls_146-127    H    0.98635992    0.44714990    0.60748936    0.22490000
opls_526-128    H    0.69590998    0.42840988    0.44047045    0.22490000
opls_146-129    H    0.67734995    0.47050008    0.43150118    0.22490000
opls_146-130    H    0.57163994    0.38908006    0.46639007    0.22490000
opls_526-131    H    0.59002991    0.34697990    0.47551064    0.22490000
opls_144-132    H    0.63131988    0.48550987    0.42905910    0.11010000
opls_146-133    H    0.47859992    0.44464989    0.18604965    0.22490000
opls_146-134    H    0.51840994    0.42323995    0.21686052    0.22500000
opls_146-135    H    0.55285000    0.53921000    0.60748936    0.22490000
opls_526-136    H    0.57158997    0.26750011    0.44047045    0.22490000
opls_146-137    H    0.52949994    0.20685002    0.43150118    0.22490000
opls_146-138    H    0.61092004    0.18255988    0.46639007    0.22490000
opls_526-139    H    0.65302002    0.24305003    0.47551064    0.22490000
opls_144-140    H    0.51448994    0.14581004    0.42905910    0.11010000
opls_146-141    H    0.55535005    0.03394987    0.18604965    0.22490000
opls_146-142    H    0.57676006    0.09516997    0.21686052    0.22500000
opls_146-143    H    0.46079008    0.01364010    0.60748936    0.22490000
opls_526-144    H    0.26749995    0.69590999    0.44047045    0.22490000
opls_146-145    H    0.20685011    0.67735009    0.43150118    0.22490000
opls_146-146    H    0.18255998    0.57163994    0.46639007    0.22490000
opls_526-147    H    0.24304993    0.59002993    0.47551064    0.22490000
opls_144-148    H    0.14581005    0.63131991    0.42905910    0.11010000
opls_146-149    H    0.03395010    0.47860002    0.18604965    0.22490000
opls_146-150    H    0.09516999    0.51840992    0.21686052    0.22500000
opls_146-151    H    0.01364008    0.55285010    0.60748936    0.22490000
opls_526-152    H    0.30408989    0.57158986    0.44047045    0.22490000
opls_146-153    H    0.32265005    0.52949992    0.43150118    0.22490000
opls_146-154    H    0.42836006    0.61091994    0.46639007    0.22490000
opls_526-155    H    0.40997009    0.65302010    0.47551064    0.22490000
opls_144-156    H    0.36867999    0.51448987    0.42905910    0.11010000
opls_146-157    H    0.52140008    0.55535011    0.18604965    0.22490000
opls_146-158    H    0.48159006    0.57676005    0.21686052    0.22500000
opls_146-159    H    0.44715000    0.46079000    0.60748936    0.22490000
opls_526-160    H    0.42841003    0.73249989    0.44047045    0.22490000
opls_146-161    H    0.47050006    0.79314998    0.43150118    0.22490000
opls_146-162    H    0.38907983    0.81743986    0.46639007    0.22490000
opls_526-163    H    0.34697998    0.75694997    0.47551064    0.22490000
opls_144-164    H    0.48551006    0.85418996    0.42905910    0.11010000
opls_146-165    H    0.44465005    0.96604987    0.18604965    0.22490000
opls_146-166    H    0.42323994    0.90483003    0.21686052    0.22500000
opls_146-167    H    0.53920992    0.98635990    0.60748936    0.22490000
