#======================================================================
# Crystal Data Generated By AuToFF
#----------------------------------------------------------------------

data_AuToFF_phase_1

_cell_length_a                         30.0891
_cell_length_b                         30.2535
_cell_length_c                         6.7237
_cell_angle_alpha                      89.67
_cell_angle_beta                       89.96
_cell_angle_gamma                      118.44
_symmetry_space_group_name_H-M_alt     'P 1'
_symmetry_space_group_IT_number        1

loop_
_space_group_symop_operation_xyz
   'x, y, z'

loop_
   _atom_site_label
   _atom_site_type_symbol
   _atom_site_fract_x
   _atom_site_fract_y
   _atom_site_fract_z
   _atom_site_charge
opls_700-0    C    0.02560998    0.01340012    0.99466055    0.06790000
opls_145-1    C    0.05136993    0.98449005    0.99719047    -0.20990000
opls_166-2    C    0.10434982    0.00819992    0.00049974    0.20300000
opls_916-3    C    0.13442979    0.06203985    0.00161968    0.16020000
opls_145-4    C    0.10896982    0.09086018    0.99925039    -0.12460000
opls_145-5    C    0.05587002    0.06686029    0.99583999    -0.10380000
opls_700-6    C    0.96931001    0.98766998    0.99144052    0.06840000
opls_145-7    C    0.94012024    0.93408015    0.98981043    -0.10380000
opls_145-8    C    0.88703003    0.90887006    0.98758095    -0.15740000
opls_916-9    C    0.86063005    0.93665989    0.98682093    0.14190000
opls_166-10    C    0.88945004    0.99071001    0.98790964    0.22250000
opls_145-11    C    0.94262008    0.01568010    0.99024026    -0.21070000
opls_142-12    C    0.77300012    0.86511015    0.98663055    0.05390000
opls_142-13    C    0.22296999    0.13176980    0.00684015    0.05310000
opls_700-14    C    0.27478992    0.14752991    0.00823971    -0.12130000
opls_280-15    C    0.29435018    0.11103007    0.00609054    0.17160000
opls_280-16    C    0.30943011    0.20294014    0.00992929    0.17060000
opls_700-17    C    0.35007997    0.13121013    0.00244960    -0.05100000
opls_700-18    C    0.36465995    0.22148014    0.00932991    -0.12110000
opls_280-19    C    0.38566002    0.18630986    0.00566963    0.17070000
opls_700-20    C    0.72090986    0.84855988    0.98501980    -0.12130000
opls_280-21    C    0.70145999    0.88501990    0.98125987    0.15830000
opls_280-22    C    0.68608984    0.79325998    0.98823090    0.17180000
opls_700-23    C    0.64602012    0.86534016    0.97901998    -0.12110000
opls_700-24    C    0.63071994    0.77496988    0.98757054    -0.05100000
opls_280-25    C    0.60991004    0.81049000    0.98149041    0.17060000
opls_142-26    C    0.39990988    0.27313995    0.01036954    0.05430000
opls_142-27    C    0.36761979    0.09612004    0.99434970    0.05360000
opls_142-28    C    0.63006987    0.90168988    0.97535971    0.05310000
opls_142-29    C    0.59529002    0.72342995    0.99199975    0.05350000
opls_916-30    C    0.41896002    0.36196986    0.01202045    0.15570000
opls_145-31    C    0.47235995    0.38463999    0.01314040    -0.12460000
opls_166-32    C    0.39661986    0.39414977    0.01025055    0.22320000
opls_145-33    C    0.50228989    0.43746982    0.01209928    -0.10510000
opls_145-34    C    0.42688991    0.44700975    0.00938048    -0.20930000
opls_700-35    C    0.48075027    0.47002010    0.01004977    0.06830000
opls_700-36    C    0.51297003    0.52599987    0.00801066    0.06790000
opls_145-37    C    0.49174999    0.55881990    0.00605038    -0.10410000
opls_145-38    C    0.56679008    0.54880978    0.00742020    -0.20990000
opls_145-39    C    0.52196989    0.61160979    0.00266972    -0.12510000
opls_166-40    C    0.59720992    0.60155995    0.00439947    0.20300000
opls_916-41    C    0.57539006    0.63412993    0.00139064    0.16060000
opls_916-42    C    0.56074003    0.92254995    0.97150013    0.14160000
opls_145-43    C    0.59010988    0.97590990    0.96823102    -0.12300000
opls_166-44    C    0.50690996    0.90070992    0.97338009    0.22330000
opls_145-45    C    0.56660992    0.00613999    0.96754091    -0.12360000
opls_145-46    C    0.48368996    0.93115004    0.97318972    -0.20990000
opls_700-47    C    0.51313996    0.98493015    0.97040993    0.06790000
opls_700-48    C    0.48808001    0.01682035    0.97141089    0.06780000
opls_145-49    C    0.43455005    0.99500996    0.96547057    -0.10410000
opls_145-50    C    0.51691992    0.07055033    0.97918061    -0.21070000
opls_145-51    C    0.41038995    0.02458017    0.97076986    -0.12460000
opls_166-52    C    0.49305001    0.10044015    0.98290038    0.22250000
opls_916-53    C    0.43903997    0.07788031    0.98103975    0.13520000
opls_181-54    C    0.42565997    0.82202017    0.97561106    -0.19310000
opls_181-55    C    0.57392001    0.17932004    0.98616056    -0.19300000
opls_181-56    C    0.88466012    0.06960016    0.98827106    -0.19250000
opls_181-57    C    0.10495000    0.92719986    0.99923106    -0.19390000
opls_181-58    C    0.31762010    0.39784978    0.00110953    -0.19250000
opls_181-59    C    0.67573989    0.59651993    0.01086035    -0.19310000
opls_700-60    C    0.07424988    0.10320991    0.49604970    0.06840000
opls_145-61    C    0.10090999    0.07517009    0.49943036    -0.21070000
opls_166-62    C    0.15407012    0.10011010    0.50286010    0.22250000
opls_916-63    C    0.18291988    0.15415000    0.50333009    0.14190000
opls_145-64    C    0.15656994    0.18198019    0.49922065    -0.15740000
opls_145-65    C    0.10347993    0.15679997    0.49557971    -0.10370000
opls_700-66    C    0.01795008    0.07748996    0.49324017    0.06790000
opls_145-67    C    0.98771991    0.02401996    0.49188077    -0.10380000
opls_145-68    C    0.93462011    0.99998987    0.48963046    -0.12470000
opls_916-69    C    0.90913001    0.02878025    0.48850011    0.15830000
opls_166-70    C    0.93918011    0.08262025    0.48957989    0.20310000
opls_145-71    C    0.99216989    0.10636996    0.49202057    -0.20990000
opls_142-72    C    0.82065994    0.95893995    0.48558051    0.05320000
opls_142-73    C    0.27063002    0.22560024    0.50891048    0.05380000
opls_700-74    C    0.32268986    0.24201005    0.51087969    -0.12130000
opls_280-75    C    0.34198995    0.20541017    0.51029071    0.15830000
opls_280-76    C    0.35763979    0.29727988    0.51181074    0.17160000
opls_700-77    C    0.39739997    0.22494019    0.50801066    -0.12110000
opls_700-78    C    0.41297987    0.31541993    0.51141958    -0.05100000
opls_280-79    C    0.43363998    0.27976006    0.50894023    0.17060000
opls_700-80    C    0.76882001    0.94302997    0.48237089    -0.12130000
opls_280-81    C    0.74910988    0.97939976    0.47884002    0.17160000
opls_280-82    C    0.73432002    0.88758981    0.48320974    0.17070000
opls_700-83    C    0.69336006    0.95905986    0.47532996    -0.05100000
opls_700-84    C    0.67906008    0.86887988    0.48077055    -0.12110000
opls_280-85    C    0.65790021    0.90392996    0.47653022    0.17070000
opls_142-86    C    0.44852997    0.36694009    0.51148056    0.05360000
opls_142-87    C    0.41321996    0.18849012    0.50316054    0.05290000
opls_142-88    C    0.67568009    0.99406974    0.47195079    0.05360000
opls_142-89    C    0.64395009    0.81718996    0.48345961    0.05250000
opls_916-90    C    0.46864998    0.45633984    0.51053017    0.16050000
opls_145-91    C    0.52206990    0.47880988    0.51062089    -0.12300000
opls_166-92    C    0.44688989    0.48895997    0.50852081    0.20280000
opls_145-93    C    0.55234991    0.53160002    0.50840034    -0.10400000
opls_145-94    C    0.47735979    0.54169982    0.50668993    -0.20990000
opls_700-95    C    0.53118003    0.56446993    0.50628984    0.06790000
opls_700-96    C    0.56341012    0.62042992    0.50286010    0.06830000
opls_145-97    C    0.54183005    0.65295017    0.49947944    -0.10510000
opls_145-98    C    0.61727006    0.64347993    0.50211050    -0.20940000
opls_145-99    C    0.57171003    0.70575984    0.49443002    -0.12470000
opls_166-100    C    0.64750009    0.69633985    0.49734961    0.22320000
opls_916-101    C    0.62510994    0.72847006    0.49278951    0.15570000
opls_916-102    C    0.60418000    0.01222993    0.46837975    0.16230000
opls_145-103    C    0.63282994    0.06559995    0.46667976    -0.12470000
opls_166-104    C    0.55017011    0.98965007    0.47050066    0.22260000
opls_145-105    C    0.60866994    0.09517995    0.46913084    -0.12360000
opls_145-106    C    0.52630015    0.01954016    0.47318972    -0.21070000
opls_700-107    C    0.55512997    0.07331010    0.47369987    0.06880000
opls_700-108    C    0.53006000    0.10518001    0.47926985    0.06790000
opls_145-109    C    0.47658978    0.08397995    0.47951972    -0.10510000
opls_145-110    C    0.55951995    0.15895007    0.48493948    -0.20990000
opls_145-111    C    0.45308982    0.11418988    0.48573073    -0.12290000
opls_166-112    C    0.53631013    0.18937005    0.49032950    0.22280000
opls_916-113    C    0.48247999    0.16754017    0.49177070    0.15860000
opls_181-114    C    0.46931008    0.91076008    0.47310048    -0.19290000
opls_181-115    C    0.61753991    0.26808992    0.48851052    -0.19310000
opls_181-116    C    0.93850991    0.16358991    0.48819967    -0.19360000
opls_181-117    C    0.15878017    0.02118026    0.50284077    -0.19250000
opls_181-118    C    0.36845988    0.49415005    0.50070945    -0.19300000
opls_181-119    C    0.72655024    0.69282015    0.51158021    -0.19250000
opls_146-120    H    0.02972002    0.94287013    0.99669966    0.11460000
opls_146-121    H    0.13050005    0.13258003    0.99999108    0.05480000
opls_146-122    H    0.03824000    0.09138011    0.99398977    0.06640000
opls_146-123    H    0.95846012    0.91019007    0.99029975    0.06620000
opls_146-124    H    0.86633009    0.86713015    0.98648034    0.05490000
opls_146-125    H    0.96367010    0.05735014    0.99130964    0.05620000
opls_144-126    H    0.78613989    0.83664997    0.98963046    0.04330000
opls_144-127    H    0.21064013    0.16090001    0.00722982    0.07400000
opls_910-128    H    0.20142002    0.05661986    0.00476981    0.29230000
opls_910-129    H    0.79268027    0.93990018    0.98291079    0.29230000
opls_144-130    H    0.44077998    0.28441986    0.00945038    0.04100000
opls_144-131    H    0.33940991    0.05520999    0.99181086    0.04890000
opls_144-132    H    0.65933988    0.94223993    0.97434090    0.04890000
opls_144-133    H    0.55446007    0.71234993    0.99101069    0.04110000
opls_146-134    H    0.49123998    0.36125988    0.01478983    0.07590000
opls_146-135    H    0.54372992    0.45289997    0.01300952    0.12840000
opls_146-136    H    0.40846996    0.47076009    0.00797050    0.09470000
opls_146-137    H    0.45029985    0.54356975    0.00692046    0.13910000
opls_146-138    H    0.58504989    0.52492981    0.00902055    0.10170000
opls_146-139    H    0.50330016    0.63520004    0.00100988    0.07640000
opls_146-140    H    0.63187011    0.99455015    0.96595097    0.13110000
opls_146-141    H    0.59151995    0.04750015    0.96410968    0.05510000
opls_146-142    H    0.44200006    0.91281997    0.97608998    0.12820000
opls_146-143    H    0.40994011    0.95363015    0.95653034    0.10300000
opls_146-144    H    0.55855975    0.08910004    0.98363065    0.11240000
opls_146-145    H    0.36861990    0.00541015    0.96656969    0.13230000
opls_910-146    H    0.34696986    0.29681994    0.01225991    0.29150000
opls_910-147    H    0.55483007    0.85023985    0.97474098    0.28370000
opls_910-148    H    0.44259008    0.14927010    0.99333982    0.27530000
opls_910-149    H    0.64765007    0.69913993    0.99749091    0.29370000
opls_185-150    H    0.41027994    0.83139006    0.11059055    0.06600000
opls_185-151    H    0.41049022    0.83119007    0.83971093    0.08520000
opls_185-152    H    0.41269994    0.78093022    0.97625061    0.08030000
opls_185-153    H    0.58981017    0.16998033    0.11895073    0.07950000
opls_185-154    H    0.58868983    0.17013008    0.84951082    0.08520000
opls_185-155    H    0.58660009    0.22036032    0.98729985    0.09100000
opls_185-156    H    0.90806006    0.08555030    0.12412063    0.06610000
opls_185-157    H    0.90906007    0.08611030    0.85504065    0.08030000
opls_185-158    H    0.85426010    0.07998018    0.98689976    0.11240000
opls_185-159    H    0.08009998    0.91126007    0.13240049    0.06650000
opls_185-160    H    0.08173022    0.91259013    0.86145989    0.09610000
opls_185-161    H    0.13370996    0.91451017    0.00066037    0.10610000
opls_185-162    H    0.32588986    0.42256981    0.13457048    0.06940000
opls_185-163    H    0.32756018    0.42138988    0.86365962    0.07590000
opls_185-164    H    0.27659012    0.37047008    0.99859003    0.09110000
opls_185-165    H    0.66584993    0.57314989    0.14887991    0.07830000
opls_185-166    H    0.66665009    0.57149989    0.87786047    0.06920000
opls_185-167    H    0.71699023    0.62323002    0.01148948    0.08520000
opls_146-168    H    0.07982995    0.03350024    0.49977988    0.05620000
opls_146-169    H    0.17730007    0.22372021    0.49872984    0.05480000
opls_146-170    H    0.08516993    0.18070023    0.49224069    0.11640000
opls_146-171    H    0.00537989    0.99951999    0.49246082    0.07640000
opls_146-172    H    0.91312020    0.95827009    0.48862950    0.05490000
opls_146-173    H    0.01378985    0.14798997    0.49311077    0.11460000
opls_144-174    H    0.83309998    0.92989000    0.48790964    0.06580000
opls_144-175    H    0.25758999    0.25415001    0.50823078    0.06330000
opls_910-176    H    0.25076985    0.15075995    0.50841967    0.29230000
opls_910-177    H    0.84204984    0.03405999    0.48428060    0.29230000
opls_144-178    H    0.48933989    0.37790005    0.51080978    0.07200000
opls_144-179    H    0.38389997    0.14796010    0.50237077    0.04890000
opls_144-180    H    0.70382016    0.03499983    0.47202069    0.04890000
opls_144-181    H    0.60304991    0.80577992    0.48201989    0.04100000
opls_146-182    H    0.54068999    0.45517010    0.51223016    0.07840000
opls_146-183    H    0.59379004    0.54681008    0.50833043    0.13850000
opls_146-184    H    0.45914020    0.56562016    0.50544059    0.09240000
opls_146-185    H    0.50037988    0.63750984    0.50055031    0.12820000
opls_146-186    H    0.63570995    0.61975985    0.50494085    0.09310000
opls_146-187    H    0.55279006    0.72910008    0.49213956    0.07380000
opls_146-188    H    0.67460974    0.08482988    0.46381073    0.13090000
opls_146-189    H    0.63330000    0.13662021    0.46764056    0.10300000
opls_146-190    H    0.48463988    0.00094021    0.47607957    0.09130000
opls_146-191    H    0.45165995    0.04263012    0.47455953    0.08780000
opls_146-192    H    0.60122014    0.17729009    0.48521017    0.13880000
opls_146-193    H    0.41133002    0.09557002    0.48577981    0.13100000
opls_910-194    H    0.39631994    0.39142995    0.51195947    0.30520000
opls_910-195    H    0.60073025    0.94081009    0.46959042    0.27520000
opls_910-196    H    0.48846989    0.23984993    0.50029003    0.28380000
opls_910-197    H    0.69703995    0.79370983    0.48884070    0.29140000
opls_185-198    H    0.45430991    0.92001983    0.60895005    0.08530000
opls_185-199    H    0.45364997    0.92003999    0.33945957    0.07950000
opls_185-200    H    0.45661007    0.86972005    0.47268998    0.08030000
opls_185-201    H    0.63399984    0.25857991    0.61956053    0.09100000
opls_185-202    H    0.63162017    0.25911020    0.34896052    0.06610000
opls_185-203    H    0.63047991    0.30917999    0.49129030    0.09110000
opls_185-204    H    0.96227003    0.17887990    0.62430059    0.09610000
opls_185-205    H    0.96281984    0.17888990    0.35329008    0.06650000
opls_185-206    H    0.90973021    0.17625024    0.48700982    0.10610000
opls_185-207    H    0.13364004    0.00430016    0.63393094    0.09100000
opls_185-208    H    0.13614991    0.00565006    0.36499969    0.08620000
opls_185-209    H    0.18914999    0.01076012    0.50677024    0.11310000
opls_185-210    H    0.37730986    0.51899004    0.63414065    0.06940000
opls_185-211    H    0.37866001    0.51770989    0.36314947    0.09110000
opls_185-212    H    0.32719017    0.46749004    0.49872091    0.08520000
opls_185-213    H    0.71684994    0.67075983    0.65283021    0.08530000
opls_185-214    H    0.71811003    0.66670992    0.38253956    0.06920000
opls_185-215    H    0.76758021    0.72024001    0.51152072    0.09110000
opls_238-216    N    0.18706003    0.08228003    0.00475047    -0.20790000
opls_238-217    N    0.80787995    0.91486010    0.98497964    -0.20790000
opls_238-218    N    0.38633992    0.30966000    0.01213051    -0.20280000
opls_238-219    N    0.58064993    0.88940987    0.97333101    -0.22770000
opls_238-220    N    0.60831997    0.68642000    0.99727078    -0.20790000
opls_238-221    N    0.41760988    0.10983014    0.98910098    -0.20790000
opls_238-222    N    0.23565979    0.17587989    0.50733988    -0.20780000
opls_238-223    N    0.85648986    0.00845990    0.48608025    -0.20780000
opls_238-224    N    0.43564004    0.40406020    0.51187024    -0.20790000
opls_238-225    N    0.62566008    0.98028983    0.46884974    -0.20780000
opls_238-226    N    0.65765995    0.78078004    0.48803012    -0.20360000
opls_238-227    N    0.46262010    0.20069013    0.49882056    -0.20540000
opls_281-228    O    0.26501000    0.06412011    0.00663936    -0.41110000
opls_281-229    O    0.29161981    0.23280986    0.01178992    -0.36370000
opls_281-230    O    0.43284987    0.20343981    0.00508066    -0.40690000
opls_281-231    O    0.56283986    0.79359993    0.97856040    -0.39310000
opls_281-232    O    0.73055997    0.93204986    0.97979041    -0.43830000
opls_281-233    O    0.70316009    0.76277009    0.99156099    -0.39760000
opls_179-234    O    0.13252018    0.98202990    0.00341933    -0.20230000
opls_179-235    O    0.85970989    0.01472033    0.98657999    -0.19000000
opls_179-236    O    0.48047998    0.84746002    0.97604982    -0.20300000
opls_179-237    O    0.51893991    0.15356029    0.98986992    -0.19600000
opls_179-238    O    0.34363013    0.36836984    0.00952028    -0.18970000
opls_179-239    O    0.65069997    0.62696974    0.00352047    -0.19000000
opls_281-240    O    0.31278992    0.15840008    0.51091984    -0.43740000
opls_281-241    O    0.34068994    0.32788988    0.51272990    -0.37690000
opls_281-242    O    0.48070012    0.29652995    0.50722982    -0.39310000
opls_281-243    O    0.61069988    0.88666976    0.47438998    -0.40690000
opls_281-244    O    0.77834002    0.02632993    0.47878052    -0.41110000
opls_281-245    O    0.75226014    0.85783993    0.48619031    -0.35340000
opls_179-246    O    0.18375993    0.07605024    0.50675983    -0.19040000
opls_179-247    O    0.91096010    0.10875017    0.48811043    -0.20220000
opls_179-248    O    0.52429005    0.93649984    0.47074012    -0.20240000
opls_179-249    O    0.56275011    0.24261005    0.49624008    -0.20370000
opls_179-250    O    0.39340022    0.46362011    0.50852081    -0.19000000
opls_179-251    O    0.70049002    0.72215001    0.49559012    -0.18970000
