#======================================================================
# Crystal Data Generated By AuToFF
#----------------------------------------------------------------------

data_AuToFF_phase_1

_cell_length_a                         38.6435
_cell_length_b                         38.6435
_cell_length_c                         4.9822
_cell_angle_alpha                      90.00
_cell_angle_beta                       90.00
_cell_angle_gamma                      120.00
_symmetry_space_group_name_H-M_alt     'P 1'
_symmetry_space_group_IT_number        1

loop_
_space_group_symop_operation_xyz
   'x, y, z'

loop_
   _atom_site_label
   _atom_site_type_symbol
   _atom_site_fract_x
   _atom_site_fract_y
   _atom_site_fract_z
   _atom_site_charge
opls_145-0    C    0.77395011    0.20712001    0.65398017    -0.19990000
opls_145-1    C    0.80762009    0.24431001    0.59332022    -0.22490000
opls_700-2    C    0.80685002    0.26740014    0.37609088    0.04860000
opls_145-3    C    0.77177996    0.25245016    0.22044077    -0.22490000
opls_145-4    C    0.73797997    0.21550009    0.28343904    -0.19970000
opls_700-5    C    0.00063004    0.48160012    0.48143993    0.00100000
opls_700-6    C    0.96530998    0.44334008    0.48209024    0.06370000
opls_145-7    C    0.93521993    0.43307989    0.67641002    -0.22470000
opls_145-8    C    0.90071999    0.39512016    0.68423989    -0.23320000
opls_145-9    C    0.89520995    0.36598992    0.49365943    0.17880000
opls_145-10    C    0.92488995    0.37539999    0.29736060    -0.23220000
opls_145-11    C    0.95941009    0.41346999    0.29314961    -0.22490000
opls_142-12    C    0.84005008    0.30460001    0.31401991    0.09350000
opls_700-13    C    0.55685997    0.03676988    0.48218056    0.05610000
opls_145-14    C    0.58817002    0.04201008    0.65668982    -0.20010000
opls_145-15    C    0.62611005    0.07671012    0.65097949    -0.23220000
opls_145-16    C    0.63421003    0.10764995    0.46746016    0.17870000
opls_145-17    C    0.60348014    0.10335009    0.29557023    -0.23310000
opls_145-18    C    0.56571003    0.06861002    0.30456023    -0.22530000
opls_142-19    C    0.70479988    0.15547992    0.57143029    0.09270000
opls_700-20    C    0.73842015    0.19231016    0.50211955    0.04310000
opls_145-21    C    0.79288006    0.56683016    0.65398017    -0.19980000
opls_145-22    C    0.75568991    0.56330990    0.59332022    -0.22490000
opls_700-23    C    0.73260002    0.53945004    0.37609088    0.04860000
opls_145-24    C    0.74754993    0.51933007    0.22044077    -0.22490000
opls_145-25    C    0.78450011    0.52248011    0.28343904    -0.19990000
opls_700-26    C    0.51839997    0.51903007    0.48143993    0.00100000
opls_700-27    C    0.55666010    0.52197004    0.48209024    0.06370000
opls_145-28    C    0.56691997    0.50213992    0.67641002    -0.22470000
opls_145-29    C    0.60487997    0.50560012    0.68423989    -0.23310000
opls_145-30    C    0.63401005    0.52922004    0.49365943    0.17880000
opls_145-31    C    0.62459996    0.54949001    0.29736060    -0.23220000
opls_145-32    C    0.58653019    0.54594016    0.29314961    -0.22490000
opls_142-33    C    0.69540013    0.53545019    0.31401991    0.09350000
opls_700-34    C    0.96322998    0.52008994    0.48218056    0.05610000
opls_145-35    C    0.95799005    0.54616009    0.65668982    -0.20000000
opls_145-36    C    0.92329009    0.54940007    0.65097949    -0.23220000
opls_145-37    C    0.89235011    0.52656004    0.46746016    0.17870000
opls_145-38    C    0.89665013    0.50013013    0.29557023    -0.23320000
opls_145-39    C    0.93139002    0.49709991    0.30456023    -0.22530000
opls_142-40    C    0.84451987    0.54931999    0.57143029    0.09270000
opls_700-41    C    0.80769015    0.54611019    0.50211955    0.04310000
opls_145-42    C    0.43316998    0.22605013    0.65398017    -0.19990000
opls_145-43    C    0.43669000    0.19238008    0.59332022    -0.22490000
opls_700-44    C    0.46055011    0.19315011    0.37609088    0.04860000
opls_145-45    C    0.48067000    0.22822007    0.22044077    -0.22490000
opls_145-46    C    0.47752007    0.26202009    0.28343904    -0.19990000
opls_700-47    C    0.48097014    0.99937011    0.48143993    0.00100000
opls_700-48    C    0.47802992    0.03468987    0.48209024    0.06370000
opls_145-49    C    0.49785995    0.06477989    0.67641002    -0.22470000
opls_145-50    C    0.49439993    0.09928002    0.68423989    -0.23320000
opls_145-51    C    0.47078001    0.10479005    0.49365943    0.17880000
opls_145-52    C    0.45051009    0.07511000    0.29736060    -0.23220000
opls_145-53    C    0.45406013    0.04059015    0.29314961    -0.22490000
opls_142-54    C    0.46454995    0.15995010    0.31401991    0.09350000
opls_700-55    C    0.47991004    0.44314018    0.48218056    0.05610000
opls_145-56    C    0.45384007    0.41183013    0.65668982    -0.20010000
opls_145-57    C    0.45060001    0.37389011    0.65097949    -0.23220000
opls_145-58    C    0.47344012    0.36579001    0.46746016    0.17870000
opls_145-59    C    0.49987014    0.39652008    0.29557023    -0.23320000
opls_145-60    C    0.50289995    0.43429007    0.30456023    -0.22530000
opls_142-61    C    0.45067999    0.29520009    0.57143029    0.09270000
opls_700-62    C    0.45388985    0.26157995    0.50211955    0.04310000
opls_145-63    C    0.22604989    0.79287999    0.65398017    -0.19990000
opls_145-64    C    0.19237991    0.75568999    0.59332022    -0.22490000
opls_700-65    C    0.19315013    0.73260016    0.37609088    0.04870000
opls_145-66    C    0.22822019    0.74755014    0.22044077    -0.22490000
opls_145-67    C    0.26202018    0.78450021    0.28343904    -0.19990000
opls_700-68    C    0.99937011    0.51840018    0.48143993    0.00100000
opls_700-69    C    0.03469002    0.55665992    0.48209024    0.06370000
opls_145-70    C    0.06478007    0.56692011    0.67641002    -0.22470000
opls_145-71    C    0.09928016    0.60488014    0.68423989    -0.23320000
opls_145-72    C    0.10479005    0.63401008    0.49365943    0.17880000
opls_145-73    C    0.07511005    0.62460001    0.29736060    -0.23220000
opls_145-74    C    0.04058991    0.58653001    0.29314961    -0.22490000
opls_142-75    C    0.15994992    0.69539999    0.31401991    0.09350000
opls_700-76    C    0.44314003    0.96323012    0.48218056    0.05610000
opls_145-77    C    0.41183012    0.95799021    0.65668982    -0.20010000
opls_145-78    C    0.37389010    0.92329018    0.65097949    -0.23220000
opls_145-79    C    0.36578997    0.89235005    0.46746016    0.17870000
opls_145-80    C    0.39652001    0.89665021    0.29557023    -0.23320000
opls_145-81    C    0.43428997    0.93138998    0.30456023    -0.22530000
opls_142-82    C    0.29520012    0.84452008    0.57143029    0.09270000
opls_700-83    C    0.26158000    0.80769014    0.50211955    0.04310000
opls_145-84    C    0.20712009    0.43317013    0.65398017    -0.19990000
opls_145-85    C    0.24431009    0.43669010    0.59332022    -0.22490000
opls_700-86    C    0.26739998    0.46054996    0.37609088    0.04860000
opls_145-87    C    0.25245007    0.48066993    0.22044077    -0.22490000
opls_145-88    C    0.21549989    0.47751989    0.28343904    -0.19990000
opls_700-89    C    0.48160003    0.48096993    0.48143993    0.00100000
opls_700-90    C    0.44333990    0.47802996    0.48209024    0.06370000
opls_145-91    C    0.43308003    0.49786008    0.67641002    -0.22470000
opls_145-92    C    0.39512018    0.49440018    0.68423989    -0.23320000
opls_145-93    C    0.36598995    0.47077996    0.49365943    0.17880000
opls_145-94    C    0.37540004    0.45050999    0.29736060    -0.23220000
opls_145-95    C    0.41346996    0.45406014    0.29314961    -0.22480000
opls_142-96    C    0.30460002    0.46455011    0.31401991    0.09350000
opls_700-97    C    0.03677002    0.47991006    0.48218056    0.05610000
opls_145-98    C    0.04200995    0.45383991    0.65668982    -0.20010000
opls_145-99    C    0.07670991    0.45059993    0.65097949    -0.23220000
opls_145-100    C    0.10764989    0.47343996    0.46746016    0.17870000
opls_145-101    C    0.10335002    0.49987017    0.29557023    -0.23320000
opls_145-102    C    0.06860998    0.50290009    0.30456023    -0.22520000
opls_142-103    C    0.15548013    0.45068001    0.57143029    0.09270000
opls_700-104    C    0.19231000    0.45389011    0.50211955    0.04310000
opls_145-105    C    0.56683017    0.77395017    0.65398017    -0.19980000
opls_145-106    C    0.56331000    0.80761992    0.59332022    -0.22490000
opls_700-107    C    0.53945004    0.80685018    0.37609088    0.04860000
opls_145-108    C    0.51933000    0.77177993    0.22044077    -0.22480000
opls_145-109    C    0.52248008    0.73798020    0.28343904    -0.19990000
opls_700-110    C    0.51902986    0.00062989    0.48143993    0.00100000
opls_700-111    C    0.52197008    0.96531013    0.48209024    0.06370000
opls_145-112    C    0.50214005    0.93522011    0.67641002    -0.22470000
opls_145-113    C    0.50560007    0.90071998    0.68423989    -0.23310000
opls_145-114    C    0.52921999    0.89520995    0.49365943    0.17890000
opls_145-115    C    0.54948991    0.92489000    0.29736060    -0.23220000
opls_145-116    C    0.54594002    0.95941015    0.29314961    -0.22490000
opls_142-117    C    0.53545020    0.84005020    0.31401991    0.09350000
opls_700-118    C    0.52009011    0.55686012    0.48218056    0.05610000
opls_145-119    C    0.54616008    0.58817017    0.65668982    -0.20010000
opls_145-120    C    0.54940014    0.62611019    0.65097949    -0.23220000
opls_145-121    C    0.52655988    0.63420999    0.46746016    0.17870000
opls_145-122    C    0.50012986    0.60347992    0.29557023    -0.23320000
opls_145-123    C    0.49710005    0.56570993    0.30456023    -0.22530000
opls_142-124    C    0.54932001    0.70479991    0.57143029    0.09270000
opls_700-125    C    0.54611015    0.73842005    0.50211955    0.04310000
opls_750-126    N    0.86170005    0.32999993    0.51279957    -0.35540000
opls_750-127    N    0.66973994    0.14161013    0.43977962    -0.35400000
opls_750-128    N    0.67000006    0.53170015    0.51279957    -0.35530000
opls_750-129    N    0.85839004    0.52812998    0.43977962    -0.35410000
opls_750-130    N    0.46829989    0.13829993    0.51279957    -0.35520000
opls_750-131    N    0.47187002    0.33025989    0.43977962    -0.35410000
opls_750-132    N    0.13829995    0.67000007    0.51279957    -0.35520000
opls_750-133    N    0.33026021    0.85839017    0.43977962    -0.35410000
opls_750-134    N    0.33000009    0.46830015    0.51279957    -0.35540000
opls_750-135    N    0.14160996    0.47187002    0.43977962    -0.35410000
opls_750-136    N    0.53170011    0.86170007    0.51279957    -0.35530000
opls_750-137    N    0.52812998    0.66974011    0.43977962    -0.35400000
opls_146-138    H    0.77556000    0.19112001    0.81254064    0.20120000
opls_146-139    H    0.83275013    0.25438016    0.70871904    0.20120000
opls_146-140    H    0.77045000    0.26848990    0.06096905    0.20110000
opls_146-141    H    0.71299009    0.20572995    0.16700052    0.20110000
opls_146-142    H    0.93847999    0.45361013    0.81375095    0.20040000
opls_146-143    H    0.87947989    0.38878990    0.82836097    0.20120000
opls_146-144    H    0.92162991    0.35442005    0.15913050    0.20120000
opls_146-145    H    0.98048010    0.41921010    0.15092931    0.20130000
opls_144-146    H    0.84675989    0.31290001    0.11715909    0.09780000
opls_146-147    H    0.58373992    0.02018003    0.78947052    0.20130000
opls_146-148    H    0.64771004    0.07907011    0.78003091    0.20110000
opls_146-149    H    0.60857007    0.12555993    0.16204087    0.20110000
opls_146-150    H    0.54447007    0.06678997    0.17919995    0.20040000
opls_144-151    H    0.70703006    0.13913988    0.72500903    0.09810000
opls_146-152    H    0.80888005    0.58444014    0.81254064    0.20110000
opls_146-153    H    0.74562018    0.57837015    0.70871904    0.20110000
opls_146-154    H    0.73150999    0.50196003    0.06096905    0.20110000
opls_146-155    H    0.79426995    0.50726000    0.16700052    0.20110000
opls_146-156    H    0.54639012    0.48486998    0.81375095    0.20040000
opls_146-157    H    0.61120998    0.49069017    0.82836097    0.20110000
opls_146-158    H    0.64557995    0.56720995    0.15913050    0.20110000
opls_146-159    H    0.58078997    0.56126994    0.15092931    0.20140000
opls_144-160    H    0.68709998    0.53385993    0.11715909    0.09780000
opls_146-161    H    0.97982003    0.56356000    0.78947052    0.20130000
opls_146-162    H    0.92093006    0.56864005    0.78003091    0.20110000
opls_146-163    H    0.87443985    0.48300990    0.16204087    0.20110000
opls_146-164    H    0.93321010    0.47768005    0.17919995    0.20040000
opls_144-165    H    0.86085989    0.56789004    0.72500903    0.09810000
opls_146-166    H    0.41556009    0.22444014    0.81254064    0.20110000
opls_146-167    H    0.42163009    0.16724999    0.70871904    0.20110000
opls_146-168    H    0.49804001    0.22955007    0.06096905    0.20110000
opls_146-169    H    0.49273995    0.28701005    0.16700052    0.20110000
opls_146-170    H    0.51512989    0.06151989    0.81375095    0.20040000
opls_146-171    H    0.50930987    0.12051993    0.82836097    0.20110000
opls_146-172    H    0.43278988    0.07837000    0.15913050    0.20120000
opls_146-173    H    0.43872993    0.01951996    0.15092931    0.20150000
opls_144-174    H    0.46614013    0.15324006    0.11715909    0.09780000
opls_146-175    H    0.43644005    0.41625996    0.78947052    0.20130000
opls_146-176    H    0.43136005    0.35229014    0.78003091    0.20120000
opls_146-177    H    0.51699007    0.39143017    0.16204087    0.20110000
opls_146-178    H    0.52232009    0.45552997    0.17919995    0.20050000
opls_144-179    H    0.43211005    0.29297008    0.72500903    0.09800000
opls_146-180    H    0.22444000    0.80887999    0.81254064    0.20110000
opls_146-181    H    0.16725001    0.74562014    0.70871904    0.20110000
opls_146-182    H    0.22955000    0.73151010    0.06096905    0.20110000
opls_146-183    H    0.28700991    0.79427005    0.16700052    0.20110000
opls_146-184    H    0.06152016    0.54639017    0.81375095    0.20040000
opls_146-185    H    0.12052011    0.61121010    0.82836097    0.20120000
opls_146-186    H    0.07837009    0.64557995    0.15913050    0.20110000
opls_146-187    H    0.01951990    0.58078990    0.15092931    0.20130000
opls_144-188    H    0.15324011    0.68709999    0.11715909    0.09780000
opls_146-189    H    0.41626008    0.97981997    0.78947052    0.20130000
opls_146-190    H    0.35229011    0.92093019    0.78003091    0.20110000
opls_146-191    H    0.39142993    0.87444007    0.16204087    0.20110000
opls_146-192    H    0.45552993    0.93321003    0.17919995    0.20040000
opls_144-193    H    0.29296994    0.86086012    0.72500903    0.09820000
opls_146-194    H    0.19112010    0.41556015    0.81254064    0.20110000
opls_146-195    H    0.25437997    0.42163015    0.70871904    0.20110000
opls_146-196    H    0.26849001    0.49803997    0.06096905    0.20110000
opls_146-197    H    0.20573005    0.49274000    0.16700052    0.20110000
opls_146-198    H    0.45360988    0.51513002    0.81375095    0.20050000
opls_146-199    H    0.38879017    0.50931013    0.82836097    0.20110000
opls_146-200    H    0.35442005    0.43279005    0.15913050    0.20110000
opls_146-201    H    0.41921003    0.43873006    0.15092931    0.20130000
opls_144-202    H    0.31290002    0.46614007    0.11715909    0.09780000
opls_146-203    H    0.02017997    0.43644000    0.78947052    0.20130000
opls_146-204    H    0.07906994    0.43135995    0.78003091    0.20110000
opls_146-205    H    0.12556015    0.51699010    0.16204087    0.20120000
opls_146-206    H    0.06678990    0.52231995    0.17919995    0.20040000
opls_144-207    H    0.13914011    0.43210996    0.72500903    0.09810000
opls_146-208    H    0.58444006    0.77556015    0.81254064    0.20110000
opls_146-209    H    0.57836991    0.83275001    0.70871904    0.20120000
opls_146-210    H    0.50195999    0.77044993    0.06096905    0.20110000
opls_146-211    H    0.50726005    0.71298995    0.16700052    0.20110000
opls_146-212    H    0.48487011    0.93848011    0.81375095    0.20040000
opls_146-213    H    0.49069013    0.87948007    0.82836097    0.20120000
opls_146-214    H    0.56721012    0.92163000    0.15913050    0.20110000
opls_146-215    H    0.56127007    0.98048004    0.15092931    0.20130000
opls_144-216    H    0.53385987    0.84675994    0.11715909    0.09780000
opls_146-217    H    0.56355995    0.58374004    0.78947052    0.20140000
opls_146-218    H    0.56864010    0.64771016    0.78003091    0.20110000
opls_146-219    H    0.48301008    0.60857013    0.16204087    0.20110000
opls_146-220    H    0.47767991    0.54447003    0.17919995    0.20040000
opls_144-221    H    0.56788995    0.70702992    0.72500903    0.09800000
