#======================================================================
# Crystal Data Generated By AuToFF
#----------------------------------------------------------------------

data_AuToFF_phase_1

_cell_length_a                         21.3710
_cell_length_b                         22.9612
_cell_length_c                         3.7605
_cell_angle_alpha                      90.00
_cell_angle_beta                       90.00
_cell_angle_gamma                      120.00
_symmetry_space_group_name_H-M_alt     'P 1'
_symmetry_space_group_IT_number        1

loop_
_space_group_symop_operation_xyz
   'x, y, z'

loop_
   _atom_site_label
   _atom_site_type_symbol
   _atom_site_fract_x
   _atom_site_fract_y
   _atom_site_fract_z
   _atom_site_charge
opls_750-0    N    0.14587018    0.86438005    0.57898950    -0.17180000
opls_520-1    N    0.37084990    0.72915990    0.39911980    -0.14790000
opls_750-2    N    0.71973976    0.85983994    0.51792049    -0.17400000
opls_750-3    N    0.13777024    0.27860023    0.54498870    -0.20720000
opls_239-4    N    0.00156005    0.00039980    0.59066082    -0.23630000
opls_916-5    C    0.03995001    0.96750009    0.59355937    0.13150000
opls_145-6    C    0.01682007    0.90768007    0.75214998    -0.23670000
opls_145-7    C    0.05267996    0.87518016    0.74749103    -0.23510000
opls_145-8    C    0.11260981    0.90131999    0.58377078    0.16130000
opls_145-9    C    0.13712989    0.96176008    0.42941098    -0.23750000
opls_145-10    C    0.10106992    0.99410007    0.43456987    -0.23550000
opls_142-11    C    0.19861003    0.87745022    0.41690999    0.08400000
opls_145-12    C    0.22603999    0.83352007    0.43096131    0.00720000
opls_145-13    C    0.19362005    0.77431006    0.59931924    -0.23640000
opls_523-14    C    0.21911011    0.73227029    0.60031911    -0.23590000
opls_522-15    C    0.27763031    0.74868016    0.43285999    -0.00860000
opls_523-16    C    0.31075023    0.80866010    0.27149049    -0.23650000
opls_145-17    C    0.28502023    0.85049017    0.26907060    -0.23590000
opls_521-18    C    0.30462006    0.70402988    0.42228959    0.13630000
opls_522-19    C    0.26323019    0.63637027    0.42382130    -0.26280000
opls_523-20    C    0.29029022    0.59557012    0.40358995    0.02810000
opls_522-21    C    0.35881009    0.62359027    0.38135886    -0.26230000
opls_521-22    C    0.39907031    0.69132028    0.37805877    0.13450000
opls_522-23    C    0.47174031    0.72243020    0.35935115    -0.01520000
opls_145-24    C    0.24721982    0.52387983    0.40185880    0.02800000
opls_523-25    C    0.50211026    0.69373014    0.18478128    -0.23450000
opls_145-26    C    0.57066005    0.72306987    0.17533041    -0.23450000
opls_145-27    C    0.61017997    0.78145012    0.34052918    0.00720000
opls_145-28    C    0.58005018    0.81074007    0.51097992    -0.23440000
opls_523-29    C    0.51147984    0.78170006    0.51833001    -0.23510000
opls_145-30    C    0.18778011    0.49458989    0.22770110    -0.23670000
opls_145-31    C    0.14792990    0.42704996    0.22055046    -0.23550000
opls_145-32    C    0.16662002    0.38746028    0.38748039    0.00700000
opls_145-33    C    0.22572017    0.41657020    0.56373089    -0.23670000
opls_145-34    C    0.26564010    0.48411012    0.57072996    -0.23550000
opls_142-35    C    0.68241995    0.81085020    0.33242122    0.08500000
opls_142-36    C    0.12435994    0.31622008    0.37196118    0.08390000
opls_145-37    C    0.79028018    0.89248015    0.53804015    0.15280000
opls_145-38    C    0.10145987    0.20884004    0.55381997    0.16680000
opls_145-39    C    0.04064999    0.17149024    0.39726100    -0.23750000
opls_145-40    C    0.00839981    0.10370994    0.41045872    -0.23750000
opls_916-41    C    0.03506019    0.07114013    0.58173115    0.15110000
opls_145-42    C    0.09538979    0.10916984    0.74163010    -0.23750000
opls_145-43    C    0.12804999    0.17702004    0.72753091    -0.23750000
opls_145-44    C    0.82783015    0.86730990    0.40286132    -0.23500000
opls_145-45    C    0.89652009    0.90214021    0.42476001    -0.23500000
opls_145-46    C    0.92975995    0.96273016    0.58155033    0.12590000
opls_145-47    C    0.89124987    0.98624992    0.72402074    -0.23470000
opls_145-48    C    0.82255984    0.95149002    0.70319107    -0.23360000
opls_146-49    H    0.97017000    0.88515000    0.87316048    0.20630000
opls_146-50    H    0.03358019    0.82896035    0.86967956    0.20610000
opls_146-51    H    0.18358996    0.98441990    0.30319107    0.20630000
opls_146-52    H    0.12126028    0.04010012    0.31406994    0.20620000
opls_144-53    H    0.22276981    0.91967002    0.26260870    0.10020000
opls_146-54    H    0.14856000    0.76070029    0.73036032    0.20620000
opls_526-55    H    0.19358002    0.68757022    0.73702965    0.20610000
opls_526-56    H    0.35574992    0.82226987    0.13963037    0.20620000
opls_146-57    H    0.31073008    0.89576002    0.13659088    0.20620000
opls_525-58    H    0.21043972    0.61551985    0.43789124    0.20640000
opls_525-59    H    0.38048982    0.59283992    0.36712937    0.20610000
opls_526-60    H    0.47305021    0.64932024    0.04974870    0.20620000
opls_146-61    H    0.59291006    0.70023002    0.03789922    0.20670000
opls_146-62    H    0.60964994    0.85578009    0.64073129    0.20610000
opls_526-63    H    0.48919015    0.80458014    0.65527988    0.20670000
opls_146-64    H    0.17303021    0.52384010    0.08908922    0.20640000
opls_146-65    H    0.10289006    0.40562022    0.08034038    0.20630000
opls_146-66    H    0.24076004    0.38698002    0.69739928    0.20630000
opls_146-67    H    0.31033021    0.50529998    0.71341045    0.20630000
opls_144-68    H    0.70322019    0.79069026    0.16710012    0.09690000
opls_144-69    H    0.08267982    0.29652984    0.20971945    0.09700000
opls_146-70    H    0.01751019    0.19365018    0.26380003    0.20550000
opls_146-71    H    0.96215990    0.07673983    0.28799894    0.20640000
opls_146-72    H    0.11781014    0.08647985    0.87399016    0.20650000
opls_146-73    H    0.17446017    0.20528007    0.85230953    0.20640000
opls_146-74    H    0.80494991    0.82090000    0.28180029    0.20610000
opls_146-75    H    0.92345986    0.88114999    0.32081904    0.20650000
opls_146-76    H    0.91412006    0.03239028    0.84435049    0.20610000
opls_146-77    H    0.79405022    0.97080007    0.81289988    0.20550000
