#======================================================================
# Crystal Data Generated By AuToFF
#----------------------------------------------------------------------

data_AuToFF_phase_1

_cell_length_a                         24.0650
_cell_length_b                         4.0888
_cell_length_c                         24.5156
_cell_angle_alpha                      90.00
_cell_angle_beta                       89.85
_cell_angle_gamma                      90.00
_symmetry_space_group_name_H-M_alt     'P 1'
_symmetry_space_group_IT_number        1

loop_
_space_group_symop_operation_xyz
   'x, y, z'

loop_
   _atom_site_label
   _atom_site_type_symbol
   _atom_site_fract_x
   _atom_site_fract_y
   _atom_site_fract_z
   _atom_site_charge
opls_145-0    C    0.55223980    0.16891019    0.41147992    -0.12360000
opls_700-1    C    0.49589978    0.11776071    0.42360000    0.03190000
opls_700-2    C    0.47951979    0.11264919    0.47911016    0.02730000
opls_700-3    C    0.57764996    0.11175895    0.50695009    0.03190000
opls_145-4    C    0.59231995    0.16259049    0.45223004    -0.13670000
opls_700-5    C    0.45519003    0.08219037    0.38225026    0.02850000
opls_145-6    C    0.39950004    0.04668118    0.39742025    -0.14350000
opls_700-7    C    0.38185997    0.07136079    0.45160023    0.02860000
opls_700-8    C    0.46788002    0.07484103    0.32270999    0.06970000
opls_700-9    C    0.32097983    0.03922911    0.46214009    0.07030000
opls_145-10    C    0.51093011    0.88164009    0.30133006    -0.11560000
opls_145-11    C    0.52130004    0.87668998    0.24523006    -0.16670000
opls_145-12    C    0.48704989    0.04808990    0.20930015    0.19640000
opls_145-13    C    0.44316989    0.23571953    0.23023996    -0.16650000
opls_145-14    C    0.43401002    0.25030082    0.28633995    -0.11560000
opls_145-15    C    0.71728998    0.19380992    0.57265992    -0.11850000
opls_145-16    C    0.77422977    0.13866905    0.56699004    -0.16350000
opls_145-17    C    0.79433981    0.93497114    0.52598008    0.19990000
opls_145-18    C    0.75662987    0.78467032    0.49020029    -0.16840000
opls_145-19    C    0.69949006    0.83222950    0.49684995    -0.11700000
opls_142-20    C    0.88118994    0.71928928    0.48806001    0.07130000
opls_700-21    C    0.94172981    0.68580023    0.49469010    -0.12230000
opls_142-22    C    0.53462982    0.10027881    0.88715022    0.07140000
opls_700-23    C    0.51601999    0.09215907    0.94454001    -0.12130000
opls_727-24    C    0.96623979    0.67432009    0.54652993    0.13010000
opls_727-25    C    0.02465004    0.67360106    0.55160019    0.12440000
opls_727-26    C    0.45952006    0.09261886    0.95880037    0.12990000
opls_727-27    C    0.44385001    0.09302974    0.01423996    0.12580000
opls_145-28    C    0.44775979    0.16891019    0.58852008    -0.12360000
opls_700-29    C    0.50409981    0.11776071    0.57640000    0.03250000
opls_700-30    C    0.52047979    0.11264919    0.52089024    0.02730000
opls_700-31    C    0.42235004    0.11175895    0.49304991    0.03190000
opls_145-32    C    0.40768005    0.16259049    0.54776996    -0.13670000
opls_700-33    C    0.54480997    0.08219037    0.61775015    0.02850000
opls_145-34    C    0.60049995    0.04668118    0.60258016    -0.14350000
opls_700-35    C    0.61814003    0.07136079    0.54840018    0.02860000
opls_700-36    C    0.53211998    0.07484103    0.67729001    0.06970000
opls_700-37    C    0.67901975    0.03922911    0.53785991    0.07030000
opls_145-38    C    0.48906989    0.88164009    0.69866994    -0.11560000
opls_145-39    C    0.47869996    0.87668998    0.75477035    -0.16670000
opls_145-40    C    0.51294970    0.04808990    0.79070025    0.19640000
opls_145-41    C    0.55682969    0.23571953    0.76976004    -0.16650000
opls_145-42    C    0.56598998    0.25030082    0.71366005    -0.11560000
opls_145-43    C    0.28271002    0.19380992    0.42734008    -0.11850000
opls_145-44    C    0.22576981    0.13866905    0.43300996    -0.16350000
opls_145-45    C    0.20565978    0.93497114    0.47401992    0.19990000
opls_145-46    C    0.24337013    0.78467032    0.50980012    -0.16840000
opls_145-47    C    0.30050994    0.83222950    0.50315005    -0.11700000
opls_142-48    C    0.11881006    0.71928928    0.51193999    0.07130000
opls_700-49    C    0.05826978    0.68580023    0.50530990    -0.12230000
opls_142-50    C    0.46537018    0.10027881    0.11285019    0.07140000
opls_700-51    C    0.48398001    0.09215907    0.05545999    -0.12130000
opls_727-52    C    0.03375979    0.67432009    0.45347007    0.13010000
opls_727-53    C    0.97534996    0.67360106    0.44840022    0.12440000
opls_727-54    C    0.54047994    0.09261886    0.04120004    0.12990000
opls_727-55    C    0.55614999    0.09302974    0.98576004    0.12590000
opls_750-56    N    0.85282975    0.87310947    0.52489016    -0.29680000
opls_750-57    N    0.50043978    0.03684944    0.84771029    -0.34900000
opls_750-58    N    0.14716984    0.87310947    0.47511025    -0.29680000
opls_750-59    N    0.49955980    0.03684944    0.15229012    -0.34900000
opls_146-60    H    0.56621993    0.21416063    0.37041000    0.08800000
opls_146-61    H    0.63493007    0.19963070    0.44010995    0.10230000
opls_146-62    H    0.36900994    0.99692086    0.36604990    0.11960000
opls_146-63    H    0.53601992    0.73117051    0.32786999    0.12220000
opls_146-64    H    0.55516005    0.73206075    0.22895016    0.12120000
opls_146-65    H    0.41728000    0.38144932    0.20375999    0.12170000
opls_146-66    H    0.40091999    0.40464929    0.30154013    0.12240000
opls_146-67    H    0.70310994    0.35717081    0.60445000    0.12220000
opls_146-68    H    0.80344994    0.25369057    0.59466028    0.11420000
opls_146-69    H    0.77056993    0.61722999    0.45911017    0.11760000
opls_146-70    H    0.67117005    0.69789914    0.47116009    0.11510000
opls_144-71    H    0.86200012    0.63613041    0.45063023    0.12500000
opls_144-72    H    0.57803991    0.15006114    0.87873024    0.10720000
opls_146-73    H    0.43378007    0.21416063    0.62959000    0.08800000
opls_146-74    H    0.36506993    0.19963070    0.55989005    0.10230000
opls_146-75    H    0.63099006    0.99692086    0.63395010    0.11960000
opls_146-76    H    0.46398008    0.73117051    0.67213001    0.12220000
opls_146-77    H    0.44483995    0.73206075    0.77105025    0.12120000
opls_146-78    H    0.58272000    0.38144932    0.79624001    0.12160000
opls_146-79    H    0.59908001    0.40464929    0.69846028    0.12240000
opls_146-80    H    0.29689006    0.35717081    0.39555000    0.12220000
opls_146-81    H    0.19655006    0.25369057    0.40534013    0.11420000
opls_146-82    H    0.22943007    0.61722999    0.54089024    0.11760000
opls_146-83    H    0.32882995    0.69789914    0.52883991    0.11510000
opls_144-84    H    0.13799988    0.63613041    0.54937017    0.12500000
opls_144-85    H    0.42196009    0.15006114    0.12127017    0.10720000
opls_719-86    F    0.93320990    0.65720016    0.59120002    -0.10520000
opls_719-87    F    0.42036988    0.10210086    0.91914017    -0.09350000
opls_719-88    F    0.04982010    0.66956075    0.60104032    -0.10630000
opls_719-89    F    0.61038967    0.09621894    0.97077034    -0.10640000
opls_719-90    F    0.06679010    0.65720016    0.40879998    -0.10520000
opls_719-91    F    0.57963012    0.10210086    0.08085983    -0.09350000
opls_719-92    F    0.95017989    0.66956075    0.39896009    -0.10630000
opls_719-93    F    0.38960992    0.09621894    0.02923007    -0.10640000
