#======================================================================
# Crystal Data Generated By AuToFF
#----------------------------------------------------------------------

data_AuToFF_phase_1

_cell_length_a                         37.3400
_cell_length_b                         37.3400
_cell_length_c                         3.6100
_cell_angle_alpha                      90.00
_cell_angle_beta                       90.00
_cell_angle_gamma                      120.00
_symmetry_space_group_name_H-M_alt     'P 1'
_symmetry_space_group_IT_number        1

loop_
_space_group_symop_operation_xyz
   'x, y, z'

loop_
   _atom_site_label
   _atom_site_type_symbol
   _atom_site_fract_x
   _atom_site_fract_y
   _atom_site_fract_z
   _atom_site_charge
opls_142-0    C    0.55778999    0.47002989    0.47057895    0.07630000
opls_531-1    C    0.64745997    0.29123006    0.58691136    0.36900000
opls_700-2    C    0.61889991    0.37342006    0.58239058    0.00010000
opls_523-3    C    0.63826992    0.41678998    0.59267036    -0.11430000
opls_145-4    C    0.61485001    0.43650987    0.58342936    -0.15300000
opls_145-5    C    0.57144000    0.41313013    0.56060111    0.20900000
opls_145-6    C    0.55212982    0.36996987    0.55734072    -0.15380000
opls_523-7    C    0.57550006    0.35021008    0.56663989    -0.11460000
opls_700-8    C    0.52808994    0.48537003    0.47349030    -0.04440000
opls_145-9    C    0.48635013    0.45878007    0.56475900    -0.25150000
opls_166-10    C    0.45776012    0.47309013    0.57295014    0.25390000
opls_181-11    C    0.60305997    0.59377983    0.47159003    -0.18090000
opls_142-12    C    0.44160983    0.52977992    0.46334072    0.07600000
opls_531-13    C    0.35260993    0.70876994    0.31355125    0.36890000
opls_700-14    C    0.38095989    0.62643986    0.32106094    0.00080000
opls_523-15    C    0.36150992    0.58304984    0.31483102    -0.11430000
opls_145-16    C    0.38485003    0.56326995    0.33026039    -0.15300000
opls_145-17    C    0.42824011    0.58659001    0.35529917    0.20900000
opls_145-18    C    0.44763997    0.62975985    0.35313019    -0.15430000
opls_523-19    C    0.42435987    0.64957994    0.33770083    -0.11350000
opls_700-20    C    0.47123985    0.51433990    0.47100000    -0.05290000
opls_145-21    C    0.51293989    0.54076999    0.37832133    -0.23800000
opls_166-22    C    0.54170989    0.52702986    0.39131025    0.23140000
opls_181-23    C    0.40274000    0.40745001    0.82208864    -0.17910000
opls_142-24    C    0.52996999    0.08776002    0.47057895    0.07630000
opls_531-25    C    0.70877009    0.35623005    0.58691136    0.36900000
opls_700-26    C    0.62658008    0.24547992    0.58239058    0.00010000
opls_523-27    C    0.58320993    0.22147984    0.59267036    -0.11430000
opls_145-28    C    0.56349003    0.17834000    0.58342936    -0.15300000
opls_145-29    C    0.58687002    0.15830993    0.56060111    0.20900000
opls_145-30    C    0.63002994    0.18216003    0.55734072    -0.15380000
opls_523-31    C    0.64978988    0.22528998    0.56663989    -0.11460000
opls_700-32    C    0.51462990    0.04271990    0.47349030    -0.04440000
opls_145-33    C    0.54121989    0.02756994    0.56475900    -0.25150000
opls_166-34    C    0.52691002    0.98467007    0.57295014    0.25390000
opls_181-35    C    0.40622006    0.00927997    0.47159003    -0.18090000
opls_142-36    C    0.47022000    0.91182993    0.46334072    0.07600000
opls_531-37    C    0.29123004    0.64383984    0.31355125    0.36890000
opls_700-38    C    0.37355999    0.75452008    0.32106094    0.00080000
opls_523-39    C    0.41694980    0.77845986    0.31483102    -0.11430000
opls_145-40    C    0.43672997    0.82157991    0.33026039    -0.15300000
opls_145-41    C    0.41340983    0.84164987    0.35529917    0.20900000
opls_145-42    C    0.37023988    0.81787986    0.35313019    -0.15430000
opls_523-43    C    0.35041995    0.77477991    0.33770083    -0.11350000
opls_700-44    C    0.48565999    0.95690005    0.47100000    -0.05290000
opls_145-45    C    0.45922988    0.97216999    0.37832133    -0.23800000
opls_166-46    C    0.47296984    0.01467991    0.39131025    0.23140000
opls_181-47    C    0.59254991    0.99528997    0.82208864    -0.17910000
opls_142-48    C    0.91224002    0.44221009    0.47057895    0.07630000
opls_531-49    C    0.64376995    0.35253989    0.58691136    0.36900000
opls_700-50    C    0.75452002    0.38110002    0.58239058    0.00010000
opls_523-51    C    0.77852000    0.36172987    0.59267036    -0.11430000
opls_145-52    C    0.82165996    0.38515013    0.58342936    -0.15300000
opls_145-53    C    0.84168999    0.42855994    0.56060111    0.20900000
opls_145-54    C    0.81783998    0.44787010    0.55734072    -0.15380000
opls_523-55    C    0.77471006    0.42449994    0.56663989    -0.11460000
opls_700-56    C    0.95728016    0.47191007    0.47349030    -0.04430000
opls_145-57    C    0.97242998    0.51364999    0.56475900    -0.25150000
opls_166-58    C    0.01533002    0.54224011    0.57295014    0.25390000
opls_181-59    C    0.99072008    0.39693989    0.47159003    -0.18090000
opls_142-60    C    0.08817001    0.55838984    0.46334072    0.07600000
opls_531-61    C    0.35615987    0.64738991    0.31355125    0.36900000
opls_700-62    C    0.24548013    0.61904006    0.32106094    0.00080000
opls_523-63    C    0.22154012    0.63849000    0.31483102    -0.11420000
opls_145-64    C    0.17841985    0.61514983    0.33026039    -0.15300000
opls_145-65    C    0.15835007    0.57176012    0.35529917    0.20900000
opls_145-66    C    0.18212000    0.55235998    0.35313019    -0.15430000
opls_523-67    C    0.22522003    0.57563984    0.33770083    -0.11350000
opls_700-68    C    0.04309990    0.52876005    0.47100000    -0.05290000
opls_145-69    C    0.02782996    0.48706003    0.37832133    -0.23800000
opls_166-70    C    0.98531984    0.45828992    0.39131025    0.23140000
opls_181-71    C    0.00471008    0.59726001    0.82208864    -0.17910000
opls_520-72    N    0.68938002    0.31426995    0.58673130    -0.40750000
opls_750-73    N    0.54580004    0.43172006    0.54991136    -0.31600000
opls_520-74    N    0.31067997    0.68579004    0.31381994    -0.40740000
opls_750-75    N    0.45375994    0.56791998    0.37513019    -0.31580000
opls_520-76    N    0.68572990    0.37511005    0.58673130    -0.40750000
opls_750-77    N    0.56827997    0.11408002    0.54991136    -0.31600000
opls_520-78    N    0.31421011    0.62488995    0.31381994    -0.40740000
opls_750-79    N    0.43207983    0.88583989    0.37513019    -0.31600000
opls_520-80    N    0.62489007    0.31062000    0.58673130    -0.40750000
opls_750-81    N    0.88591999    0.45419992    0.54991136    -0.31590000
opls_520-82    N    0.37510992    0.68932001    0.31381994    -0.40750000
opls_750-83    N    0.11415997    0.54624013    0.37513019    -0.31600000
opls_179-84    O    0.41595995    0.44784010    0.67908033    -0.18990000
opls_179-85    O    0.58356983    0.55369991    0.30344044    -0.19200000
opls_179-86    O    0.55215983    0.96811988    0.67908033    -0.18990000
opls_179-87    O    0.44630006    0.02987007    0.30344044    -0.19190000
opls_179-88    O    0.03187995    0.58404002    0.67908033    -0.18990000
opls_179-89    O    0.97013011    0.41643002    0.30344044    -0.19200000
opls_144-90    H    0.58950001    0.49104983    0.39277008    0.13220000
opls_526-91    H    0.67159998    0.43561988    0.60922992    0.12860000
opls_146-92    H    0.63094986    0.46984992    0.59978947    0.13130000
opls_146-93    H    0.51873993    0.35155002    0.54419114    0.12660000
opls_526-94    H    0.55949995    0.31675995    0.56003878    0.12810000
opls_146-95    H    0.47639989    0.42689994    0.62862881    0.13120000
opls_185-96    H    0.61324000    0.61794010    0.25516898    0.09770000
opls_185-97    H    0.63081002    0.59838008    0.62436011    0.07980000
opls_185-98    H    0.58273997    0.59806002    0.66970914    0.07990000
opls_144-99    H    0.40985015    0.50908005    0.54162881    0.12590000
opls_526-100    H    0.32817999    0.56425982    0.29755125    0.12860000
opls_146-101    H    0.36870009    0.52989991    0.31757064    0.12790000
opls_146-102    H    0.48102988    0.64812992    0.36772022    0.12660000
opls_526-103    H    0.44042009    0.68303997    0.34108864    0.12850000
opls_146-104    H    0.52329009    0.57227006    0.29344875    0.12660000
opls_185-105    H    0.42386003    0.40869006    0.04208033    0.08970000
opls_185-106    H    0.40121007    0.38611001    0.60229086    0.08280000
opls_185-107    H    0.37130999    0.39479995    0.94083102    0.07980000
opls_144-108    H    0.50895002    0.09845012    0.39277008    0.13220000
opls_526-109    H    0.56437997    0.23598008    0.60922992    0.12860000
opls_146-110    H    0.53014984    0.16109989    0.59978947    0.13130000
opls_146-111    H    0.64845014    0.16719005    0.54419114    0.12660000
opls_526-112    H    0.68324014    0.24274006    0.56003878    0.12810000
opls_146-113    H    0.57310001    0.04949998    0.62862881    0.13120000
opls_185-114    H    0.38205995    0.99529987    0.25516898    0.09770000
opls_185-115    H    0.40161990    0.03242995    0.62436011    0.07980000
opls_185-116    H    0.40193987    0.98467996    0.66970914    0.07990000
opls_144-117    H    0.49092007    0.90076998    0.54162881    0.12590000
opls_526-118    H    0.43574014    0.76392003    0.29755125    0.12860000
opls_146-119    H    0.47010001    0.83879992    0.31757064    0.12780000
opls_146-120    H    0.35186989    0.83289993    0.36772022    0.12660000
opls_526-121    H    0.31695991    0.75737992    0.34108864    0.12860000
opls_146-122    H    0.42772980    0.95101986    0.29344875    0.12660000
opls_185-123    H    0.59130999    0.01517006    0.04208033    0.08970000
opls_185-124    H    0.61389005    0.01509986    0.60229086    0.08280000
opls_185-125    H    0.60520003    0.97650985    0.94083102    0.07980000
opls_144-126    H    0.90154997    0.41050004    0.39277008    0.13220000
opls_526-127    H    0.76402005    0.32840003    0.60922992    0.12860000
opls_146-128    H    0.83889987    0.36904988    0.59978947    0.13130000
opls_146-129    H    0.83280993    0.48125993    0.54419114    0.12660000
opls_526-130    H    0.75725990    0.44049999    0.56003878    0.12810000
opls_146-131    H    0.95050009    0.52360008    0.62862881    0.13120000
opls_185-132    H    0.00470005    0.38676003    0.25516898    0.09770000
opls_185-133    H    0.96757008    0.36918997    0.62436011    0.07980000
opls_185-134    H    0.01531989    0.41726002    0.66970914    0.07990000
opls_144-135    H    0.09923005    0.59014998    0.54162881    0.12590000
opls_526-136    H    0.23607998    0.67181983    0.29755125    0.12870000
opls_146-137    H    0.16120001    0.63129987    0.31757064    0.12780000
opls_146-138    H    0.16709981    0.51896984    0.36772022    0.12660000
opls_526-139    H    0.24261999    0.55958010    0.34108864    0.12850000
opls_146-140    H    0.04898011    0.47671009    0.29344875    0.12660000
opls_185-141    H    0.98482998    0.57613988    0.04208033    0.08970000
opls_185-142    H    0.98490000    0.59878982    0.60229086    0.08280000
opls_185-143    H    0.02348983    0.62868988    0.94083102    0.07980000
