#======================================================================
# Crystal Data Generated By AuToFF
#----------------------------------------------------------------------

data_AuToFF_phase_1

_cell_length_a                         24.7594
_cell_length_b                         26.1023
_cell_length_c                         3.5331
_cell_angle_alpha                      90.00
_cell_angle_beta                       90.00
_cell_angle_gamma                      120.00
_symmetry_space_group_name_H-M_alt     'P 1'
_symmetry_space_group_IT_number        1

loop_
_space_group_symop_operation_xyz
   'x, y, z'

loop_
   _atom_site_label
   _atom_site_type_symbol
   _atom_site_fract_x
   _atom_site_fract_y
   _atom_site_fract_z
   _atom_site_charge
opls_750-0    N    0.18730012    0.80969023    0.52416009    -0.22960000
opls_520-1    N    0.39348023    0.68721027    0.49932071    -0.27090000
opls_750-2    N    0.18847020    0.28049015    0.51825026    -0.33680000
opls_750-3    N    0.71339005    0.81577023    0.32136084    -0.25130000
opls_520-4    N    0.00275001    0.91119010    0.41241969    -0.40660000
opls_520-5    N    0.09324997    0.99979031    0.47630976    -0.44100000
opls_520-6    N    0.00207007    0.99927008    0.41787948    -0.44080000
opls_522-7    C    0.09659992    0.90782009    0.47490872    0.03310000
opls_523-8    C    0.06585011    0.84681036    0.42464125    -0.21380000
opls_145-9    C    0.09670992    0.81577023    0.44331041    -0.22100000
opls_145-10    C    0.15855018    0.84445029    0.51483117    0.19220000
opls_145-11    C    0.18982001    0.90554008    0.56387026    -0.22180000
opls_523-12    C    0.15902015    0.93686024    0.54440859    -0.21370000
opls_142-13    C    0.24205018    0.82588027    0.62922080    0.10050000
opls_145-14    C    0.26442993    0.78405017    0.61363109    0.05610000
opls_145-15    C    0.22685017    0.72616007    0.49399960    -0.21380000
opls_523-16    C    0.24855001    0.68715011    0.47283122    -0.21350000
opls_522-17    C    0.30841006    0.70491014    0.57475871    0.01120000
opls_523-18    C    0.34593003    0.76298028    0.69435906    -0.21360000
opls_145-19    C    0.32415000    0.80211013    0.71416037    -0.21350000
opls_521-20    C    0.33298998    0.66456996    0.53965073    0.16300000
opls_523-21    C    0.06250029    0.12427025    0.46888002    -0.21370000
opls_522-22    C    0.09493016    0.09425023    0.48052136    0.03300000
opls_523-23    C    0.15801991    0.12682010    0.51228100    -0.21400000
opls_145-24    C    0.18782019    0.18797005    0.52629136    -0.22140000
opls_145-25    C    0.81058989    0.81581004    0.29791967    -0.22130000
opls_523-26    C    0.87348013    0.84659006    0.31686904    -0.21350000
opls_700-27    C    0.90515011    0.90777010    0.35700093    0.02780000
opls_523-28    C    0.87244015    0.93753000    0.36692989    -0.21420000
opls_145-29    C    0.80952025    0.90659028    0.34811922    -0.22110000
opls_531-30    C    0.97174015    0.94023999    0.39409018    0.33890000
opls_531-31    C    0.06345995    0.94055009    0.45377997    0.33660000
opls_531-32    C    0.06271977    0.02942989    0.45837084    0.34030000
opls_522-33    C    0.29528017    0.60350007    0.54545017    -0.24840000
opls_523-34    C    0.31930033    0.56678028    0.48082137    0.08180000
opls_522-35    C    0.38148980    0.59236991    0.42286943    -0.24740000
opls_521-36    C    0.41893016    0.65313014    0.44933062    0.16330000
opls_700-37    C    0.48557018    0.68064012    0.42870001    0.01210000
opls_145-38    C    0.27995014    0.50195021    0.47364920    0.07980000
opls_145-39    C    0.22030031    0.47586025    0.34031870    -0.21370000
opls_145-40    C    0.18398983    0.41501996    0.32748012    -0.21370000
opls_145-41    C    0.20661986    0.37893012    0.44381987    0.05530000
opls_145-42    C    0.26587995    0.40465998    0.57966092    -0.21360000
opls_145-43    C    0.30198978    0.46542993    0.59677054    -0.21350000
opls_523-44    C    0.51457989    0.64946992    0.53567971    -0.21360000
opls_145-45    C    0.57717991    0.67598014    0.52511958    -0.21410000
opls_700-46    C    0.61246020    0.73440019    0.41271971    0.04640000
opls_145-47    C    0.58400015    0.76597029    0.30767032    -0.21380000
opls_523-48    C    0.52110015    0.73933002    0.31648977    -0.21370000
opls_142-49    C    0.67859983    0.76137004    0.41566047    0.10070000
opls_142-50    C    0.16816979    0.31482996    0.41768136    0.09970000
opls_145-51    C    0.15556017    0.21771005    0.50611927    0.19070000
opls_145-52    C    0.77805028    0.84564028    0.32234865    0.19170000
opls_145-53    C    0.09238013    0.18527997    0.48311115    -0.22130000
opls_526-54    H    0.01793012    0.82315037    0.36796015    0.21630000
opls_146-55    H    0.07254016    0.76892005    0.40101894    0.07890000
opls_146-56    H    0.23775018    0.92943011    0.61339051    0.21620000
opls_526-57    H    0.18390003    0.98380022    0.58418952    0.21530000
opls_144-58    H    0.27188997    0.86962011    0.73200872    0.09230000
opls_146-59    H    0.18087002    0.71147012    0.40926099    0.21630000
opls_526-60    H    0.21875999    0.64382035    0.36351080    0.09640000
opls_526-61    H    0.39213997    0.77789009    0.77493136    0.21630000
opls_146-62    H    0.35392021    0.84648035    0.80849113    0.21680000
opls_525-63    H    0.24793020    0.58458013    0.60769013    0.21620000
opls_525-64    H    0.40041989    0.56513996    0.35111941    0.21690000
opls_146-65    H    0.20216984    0.50233994    0.23460134    0.21030000
opls_146-66    H    0.13855025    0.39608011    0.21870029    0.21610000
opls_146-67    H    0.28393008    0.37762024    0.67664091    0.21030000
opls_146-68    H    0.34681998    0.48369029    0.71361977    0.21610000
opls_526-69    H    0.48932011    0.60513996    0.64036965    0.21100000
opls_146-70    H    0.59821017    0.65110008    0.61286123    0.21710000
opls_146-71    H    0.61051999    0.81111998    0.21860123    0.07890000
opls_526-72    H    0.49997004    0.76430033    0.23280122    0.21710000
opls_144-73    H    0.69751008    0.73522036    0.51508873    0.10440000
opls_144-74    H    0.12345004    0.29734995    0.30080100    0.10580000
opls_146-75    H    0.06572033    0.20650026    0.48116102    0.21620000
opls_526-76    H    0.01382977    0.10043994    0.44907022    0.21620000
opls_526-77    H    0.18419026    0.10496013    0.52489032    0.21600000
opls_146-78    H    0.23637997    0.21263998    0.54954006    0.21620000
opls_146-79    H    0.78784002    0.76898021    0.26077949    0.09670000
opls_526-80    H    0.89746035    0.82259033    0.30120008    0.21590000
opls_526-81    H    0.89553010    0.98466020    0.39493929    0.21530000
opls_146-82    H    0.78480016    0.92983002    0.36220883    0.21600000
