#======================================================================
# Crystal Data Generated By AuToFF
#----------------------------------------------------------------------

data_AuToFF_phase_1

_cell_length_a                         25.2000
_cell_length_b                         25.2000
_cell_length_c                         7.7000
_cell_angle_alpha                      90.00
_cell_angle_beta                       90.00
_cell_angle_gamma                      90.00
_symmetry_space_group_name_H-M_alt     'P 1'
_symmetry_space_group_IT_number        1

loop_
_space_group_symop_operation_xyz
   'x, y, z'

loop_
   _atom_site_label
   _atom_site_type_symbol
   _atom_site_fract_x
   _atom_site_fract_y
   _atom_site_fract_z
   _atom_site_charge
Cu2+-0    Cu    0.32235992    0.66160992    0.53648961    0.68580000
Cu2+-1    Cu    0.28270000    0.69593016    0.94155974    0.68580000
opls_750-2    N    0.29945000    0.01890992    0.34234026    -0.33800000
opls_750-3    N    0.34365992    0.30348016    0.56867013    -0.33800000
opls_542-4    N    0.37496984    0.61505992    0.65320000    -0.37330000
opls_542-5    N    0.26870992    0.60304008    0.53837013    -0.37710000
opls_542-6    N    0.37388016    0.72204008    0.54305065    -0.37700000
opls_542-7    N    0.27128016    0.70680992    0.40928961    -0.37360000
opls_750-8    N    0.68194008    0.67775992    0.58685065    -0.32620000
opls_750-9    N    0.96509008    0.64138016    0.32938961    -0.32370000
opls_750-10    N    0.26533016    0.05550992    0.92051948    -0.32620000
opls_750-11    N    0.30853016    0.34215992    0.12905974    -0.32280000
opls_542-12    N    0.32618016    0.65660000    0.11328052    -0.37910000
opls_542-13    N    0.23174008    0.63515992    0.93445065    -0.37700000
opls_542-14    N    0.33595992    0.75489008    0.93961039    -0.37710000
opls_542-15    N    0.23024008    0.74276984    0.82512987    -0.35420000
opls_750-16    N    0.63740000    0.70803016    0.12610000    -0.32620000
opls_750-17    N    0.92370000    0.66933016    0.87931948    -0.33770000
opls_700-18    C    0.31494008    0.85144008    0.35488052    0.06440000
opls_145-19    C    0.35598016    0.88203016    0.28150000    -0.12640000
opls_145-20    C    0.26650000    0.87705992    0.38995974    -0.11710000
opls_145-21    C    0.35109008    0.93738016    0.26738052    -0.17070000
opls_145-22    C    0.26090992    0.93175000    0.37038052    -0.18830000
opls_145-23    C    0.30400992    0.96263016    0.32028052    0.20350000
opls_142-24    C    0.33839008    0.05153016    0.36915974    0.07290000
opls_700-25    C    0.32830992    0.10726984    0.42084026    -0.14900000
opls_727-26    C    0.27776984    0.13090000    0.40985974    0.13380000
opls_727-27    C    0.37035000    0.13631984    0.49245065    0.13190000
opls_727-28    C    0.27051984    0.18404008    0.46464026    0.13190000
opls_727-29    C    0.36311984    0.18945992    0.54537013    0.13180000
opls_700-30    C    0.31328016    0.21361984    0.52804026    -0.11530000
opls_142-31    C    0.30470992    0.26979008    0.57455974    0.07210000
opls_145-32    C    0.33955992    0.35924008    0.60268961    0.20190000
opls_145-33    C    0.30085992    0.38040992    0.71378961    -0.16310000
opls_145-34    C    0.37570000    0.39339008    0.52300000    -0.15900000
opls_145-35    C    0.29759008    0.43525992    0.73968052    -0.11970000
opls_145-36    C    0.37111984    0.44835992    0.54328961    -0.12570000
opls_700-37    C    0.33138016    0.47013016    0.65017013    0.07090000
opls_700-38    C    0.32410000    0.52916984    0.65700000    -0.07870000
opls_543-39    C    0.36904008    0.56140000    0.69275065    0.19000000
opls_543-40    C    0.27670992    0.55089008    0.59475065    0.18930000
opls_716-41    C    0.41666984    0.54139008    0.76807013    -0.16780000
opls_716-42    C    0.22796984    0.52135992    0.57925974    -0.16220000
opls_543-43    C    0.42770000    0.62723016    0.69224026    0.19000000
opls_716-44    C    0.45315992    0.58224008    0.76724935    -0.16780000
opls_543-45    C    0.21570000    0.60520992    0.48357013    0.18990000
opls_716-46    C    0.19000000    0.55535992    0.51990000    -0.15970000
opls_700-47    C    0.45433016    0.67580000    0.65821039    -0.08140000
opls_700-48    C    0.19204008    0.64621984    0.38910000    -0.07980000
opls_543-49    C    0.42670000    0.72046984    0.59944935    0.19000000
opls_543-50    C    0.36494008    0.77456984    0.49161948    0.19000000
opls_543-51    C    0.27990000    0.75810000    0.34795974    0.19130000
opls_543-52    C    0.22204008    0.69178016    0.34278052    0.19000000
opls_700-53    C    0.51381984    0.67499008    0.64882987    0.07110000
opls_716-54    C    0.44964008    0.77269008    0.58794935    -0.16300000
opls_716-55    C    0.41100000    0.80630000    0.53060000    -0.16250000
opls_700-56    C    0.32116984    0.79329008    0.39821948    -0.08450000
opls_716-57    C    0.23894008    0.77275992    0.23034026    -0.16700000
opls_716-58    C    0.20288016    0.73125992    0.22662987    -0.16780000
opls_145-59    C    0.54555992    0.71140000    0.73988961    -0.12570000
opls_145-60    C    0.53909008    0.63763016    0.54105974    -0.12060000
opls_145-61    C    0.60080000    0.71185000    0.71772987    -0.16020000
opls_145-62    C    0.59425000    0.63700992    0.52342987    -0.16220000
opls_145-63    C    0.62555992    0.67441984    0.61134026    0.20830000
opls_142-64    C    0.71250992    0.63991984    0.53035974    0.07310000
opls_700-65    C    0.76920000    0.64990992    0.49580000    0.06190000
opls_145-66    C    0.80199008    0.60800000    0.44191039    -0.12290000
opls_145-67    C    0.79043016    0.70134008    0.50710000    -0.12600000
opls_145-68    C    0.85505000    0.61731984    0.39838052    -0.12190000
opls_145-69    C    0.84345000    0.71065000    0.46344026    -0.12340000
opls_700-70    C    0.87609008    0.66880000    0.40771948    0.06250000
opls_142-71    C    0.93204008    0.67965000    0.36470000    0.07280000
opls_145-72    C    0.02163016    0.64670992    0.31021039    0.19900000
opls_145-73    C    0.04870000    0.69228016    0.36560000    -0.15830000
opls_145-74    C    0.05135992    0.60260992    0.25704935    -0.17090000
opls_145-75    C    0.10351984    0.69150992    0.38392987    -0.12750000
opls_145-76    C    0.10700992    0.60255000    0.27144026    -0.12630000
opls_700-77    C    0.13365000    0.64611984    0.34534935    0.07100000
opls_700-78    C    0.27384008    0.88848016    0.82875974    0.06520000
opls_145-79    C    0.30846984    0.92329008    0.74168961    -0.12590000
opls_145-80    C    0.23436984    0.91079008    0.93558052    -0.12630000
opls_145-81    C    0.30644008    0.97816984    0.77027013    -0.16030000
opls_145-82    C    0.23115000    0.96586984    0.95905065    -0.16310000
opls_145-83    C    0.26816984    0.99975992    0.88195974    0.20340000
opls_142-84    C    0.30389008    0.08974008    0.90968052    0.07300000
opls_700-85    C    0.29539008    0.14570000    0.96200000    0.05750000
opls_145-86    C    0.24475992    0.16381984    0.01015065    -0.12570000
opls_145-87    C    0.33835992    0.18120000    0.96892987    -0.12890000
opls_145-88    C    0.23721984    0.21628016    0.06407013    -0.12190000
opls_145-89    C    0.33075992    0.23386984    0.02285974    -0.12580000
opls_700-90    C    0.28005992    0.25176984    0.07198052    0.05880000
opls_142-91    C    0.27033016    0.30736984    0.12602987    0.07330000
opls_145-92    C    0.30304008    0.39844008    0.15720000    0.20080000
opls_145-93    C    0.25550000    0.42234008    0.21268052    -0.17050000
opls_145-94    C    0.34543016    0.43110992    0.11012987    -0.16210000
opls_145-95    C    0.24913016    0.47756984    0.20217013    -0.12510000
opls_145-96    C    0.33868016    0.48613016    0.09752987    -0.11300000
opls_700-97    C    0.28950000    0.50999008    0.13371039    0.06560000
opls_141-98    C    0.28089008    0.56785992    0.09124026    -0.13210000
opls_543-99    C    0.31955000    0.60745992    0.16268961    0.19450000
opls_543-100    C    0.24061984    0.58255992    0.98605974    0.20610000
opls_716-101    C    0.36149008    0.59181984    0.28055974    -0.19120000
opls_716-102    C    0.19458016    0.55086984    0.94638961    -0.16030000
opls_543-103    C    0.37805000    0.67144008    0.17278961    0.19140000
opls_716-104    C    0.39635000    0.62984008    0.28648961    -0.19110000
opls_543-105    C    0.17910000    0.63670000    0.87684026    0.18930000
opls_716-106    C    0.15608016    0.58448016    0.88830000    -0.16020000
opls_141-107    C    0.41011984    0.70945000    0.10530000    -0.13230000
opls_700-108    C    0.15161984    0.68123016    0.81651039    -0.07970000
opls_543-109    C    0.38895000    0.75250992    0.99352987    0.18660000
opls_543-110    C    0.32814008    0.80708016    0.88285974    0.18940000
opls_543-111    C    0.23576984    0.79665992    0.78715974    0.18990000
opls_543-112    C    0.17780000    0.73018016    0.78435974    0.18980000
opls_700-113    C    0.46883016    0.70700000    0.13937013    0.07080000
opls_716-114    C    0.41496984    0.80209008    0.95568961    -0.16050000
opls_716-115    C    0.37709008    0.83628016    0.89680000    -0.16460000
opls_700-116    C    0.28066984    0.82905992    0.82210000    -0.07950000
opls_716-117    C    0.18805992    0.81640000    0.71178052    -0.16560000
opls_716-118    C    0.15203016    0.77514008    0.71011039    -0.16770000
opls_145-119    C    0.49773016    0.75045992    0.20351948    -0.12480000
opls_145-120    C    0.49681984    0.66045000    0.09894026    -0.11770000
opls_145-121    C    0.55341984    0.74905000    0.20844935    -0.16560000
opls_145-122    C    0.55210000    0.65858016    0.10591948    -0.16240000
opls_145-123    C    0.58111984    0.70386984    0.15392987    0.19900000
opls_142-124    C    0.66971984    0.66949008    0.08814935    0.07080000
opls_700-125    C    0.72568016    0.67970000    0.04041039    -0.11450000
opls_727-126    C    0.76161984    0.63739008    0.04571039    0.13140000
opls_727-127    C    0.74311984    0.72960992    0.98250000    0.13300000
opls_727-128    C    0.81553016    0.64496984    0.00042987    0.13290000
opls_727-129    C    0.79719008    0.73740992    0.93994935    0.13190000
opls_700-130    C    0.83360992    0.69556984    0.95118961    -0.11290000
opls_142-131    C    0.89040000    0.70691984    0.91720000    0.07170000
opls_145-132    C    0.97980000    0.67595992    0.85481039    0.20690000
opls_145-133    C    0.00896984    0.71526984    0.94222987    -0.16780000
opls_145-134    C    0.00671984    0.63975000    0.75004935    -0.16080000
opls_145-135    C    0.06438016    0.71719008    0.92704026    -0.12630000
opls_145-136    C    0.06183016    0.64285992    0.72988052    -0.12260000
opls_700-137    C    0.09180000    0.68076984    0.82110000    0.06550000
opls_719-138    F    0.22235992    0.20860000    0.45175974    -0.14130000
opls_719-139    F    0.23615992    0.10305992    0.34258052    -0.13190000
opls_719-140    F    0.40328016    0.21641984    0.62447013    -0.10720000
opls_719-141    F    0.41755992    0.11109008    0.51758052    -0.10720000
opls_719-142    F    0.70733016    0.76964008    0.96092987    -0.13120000
opls_719-143    F    0.81524008    0.78529008    0.88241039    -0.14300000
opls_719-144    F    0.74350000    0.58931984    0.10267013    -0.14750000
opls_719-145    F    0.85055000    0.60395000    0.01345065    -0.15040000
opls_146-146    H    0.39260992    0.86350992    0.24110000    0.12460000
opls_146-147    H    0.23328016    0.85495992    0.43875065    0.10080000
opls_146-148    H    0.38413016    0.96025000    0.21822987    0.12620000
opls_146-149    H    0.22431984    0.95105992    0.40854026    0.12030000
opls_144-150    H    0.37880992    0.03683016    0.37544026    0.10370000
opls_144-151    H    0.26445000    0.28331984    0.59748961    0.10740000
opls_146-152    H    0.27385992    0.35464008    0.78280000    0.12170000
opls_146-153    H    0.40601984    0.37698016    0.43908961    0.12060000
opls_146-154    H    0.26815992    0.45051984    0.82878961    0.12580000
opls_146-155    H    0.39809008    0.47390000    0.47281039    0.12530000
opls_547-156    H    0.42503016    0.50115000    0.80915065    0.12100000
opls_547-157    H    0.21948016    0.48053016    0.60891948    0.12170000
opls_547-158    H    0.49415992    0.57851984    0.80755065    0.12100000
opls_547-159    H    0.14876984    0.54466984    0.50624026    0.11940000
opls_547-160    H    0.48896984    0.78599008    0.62081039    0.10300000
opls_547-161    H    0.41614008    0.84870000    0.52151948    0.12970000
opls_547-162    H    0.23500000    0.80903016    0.15665974    0.12170000
opls_547-163    H    0.16695992    0.73089008    0.15001039    0.12070000
opls_146-164    H    0.52776984    0.73934008    0.82918052    0.12320000
opls_146-165    H    0.51610000    0.60905992    0.46818961    0.12570000
opls_146-166    H    0.62499008    0.74099008    0.78485065    0.11930000
opls_146-167    H    0.61188016    0.60881984    0.43498052    0.12500000
opls_144-168    H    0.69699008    0.60060000    0.50511039    0.09940000
opls_146-169    H    0.02814008    0.72735992    0.40888052    0.10570000
opls_146-170    H    0.03086984    0.56763016    0.21065974    0.12520000
opls_146-171    H    0.12240000    0.72629008    0.43524026    0.11150000
opls_146-172    H    0.12880000    0.56781984    0.23065974    0.12490000
opls_144-173    H    0.94505000    0.72039008    0.37191039    0.12630000
opls_146-174    H    0.33785992    0.90795000    0.65268052    0.12620000
opls_146-175    H    0.20675000    0.88558016    0.00458052    0.12190000
opls_146-176    H    0.33431984    0.00355000    0.70364935    0.12310000
opls_146-177    H    0.20133016    0.98253016    0.04435974    0.12060000
opls_144-178    H    0.34340992    0.07736984    0.87172987    0.11270000
opls_144-179    H    0.22968016    0.31908016    0.14945065    0.12570000
opls_146-180    H    0.22278016    0.39876984    0.25987013    0.12500000
opls_146-181    H    0.38249008    0.41320992    0.07001948    0.12530000
opls_146-182    H    0.21160992    0.49461984    0.24052987    0.12310000
opls_146-183    H    0.37135000    0.50995000    0.05284026    0.12170000
opls_547-184    H    0.36724008    0.55324008    0.33858961    0.12310000
opls_547-185    H    0.18906984    0.50859008    0.95861039    0.12970000
opls_547-186    H    0.43466984    0.62645992    0.34774935    0.10870000
opls_547-187    H    0.11661984    0.57095992    0.85895974    0.23780000
opls_547-188    H    0.45610992    0.81264008    0.97318052    0.12400000
opls_547-189    H    0.38579008    0.87721984    0.86985065    0.09840000
opls_547-190    H    0.17905992    0.85678016    0.67401948    0.12200000
opls_547-191    H    0.11096984    0.77883016    0.67071039    0.12200000
opls_146-192    H    0.47750992    0.78613016    0.24457013    0.12070000
opls_146-193    H    0.47565000    0.62563016    0.05768052    0.09830000
opls_146-194    H    0.57556984    0.78390992    0.24741948    0.12030000
opls_146-195    H    0.57140992    0.62280000    0.06225065    0.11620000
opls_144-196    H    0.65645000    0.62868016    0.08944026    0.12350000
opls_146-197    H    0.98935000    0.74268016    0.02905974    0.12620000
opls_146-198    H    0.98439008    0.60933016    0.68270000    0.12030000
opls_146-199    H    0.08596984    0.74658016    0.00120000    0.12480000
opls_146-200    H    0.08105000    0.61530000    0.64274026    0.12180000
opls_144-201    H    0.90353016    0.74793016    0.92018052    0.11050000
opls_146-202    H    0.76576984    0.73441984    0.54834935    0.11600000
opls_146-203    H    0.85899008    0.75066984    0.47405974    0.11670000
opls_146-204    H    0.78604008    0.56830000    0.42708961    0.12170000
opls_146-205    H    0.87920000    0.58473016    0.35158961    0.12380000
opls_146-206    H    0.19796984    0.22866984    0.10491948    0.12000000
opls_146-207    H    0.36434008    0.26080992    0.02481948    0.11670000
opls_146-208    H    0.37790000    0.16835992    0.93152987    0.11650000
opls_146-209    H    0.21126984    0.13679008    0.01174935    0.11690000
