#======================================================================
# Crystal Data Generated By AuToFF
#----------------------------------------------------------------------

data_AuToFF_phase_1

_cell_length_a                         33.6660
_cell_length_b                         33.6660
_cell_length_c                         3.5222
_cell_angle_alpha                      90.00
_cell_angle_beta                       90.00
_cell_angle_gamma                      120.00
_symmetry_space_group_name_H-M_alt     'P 1'
_symmetry_space_group_IT_number        1

loop_
_space_group_symop_operation_xyz
   'x, y, z'

loop_
   _atom_site_label
   _atom_site_type_symbol
   _atom_site_fract_x
   _atom_site_fract_y
   _atom_site_fract_z
   _atom_site_charge
opls_145-0    C    0.02418016    0.48104018    0.00000000    -0.22690000
opls_145-1    C    0.04341990    0.52445996    0.00000000    0.12320000
opls_145-2    C    0.01897997    0.54319014    0.00000000    -0.22600000
opls_142-3    C    0.11255990    0.53544001    0.00000000    0.08090000
opls_145-4    C    0.15759012    0.56281999    0.00000000    0.00640000
opls_145-5    C    0.18312995    0.54535988    0.00000000    -0.22630000
opls_145-6    C    0.22617003    0.57078003    0.00000000    -0.22720000
opls_145-7    C    0.24429002    0.61409005    0.00000000    0.02060000
opls_145-8    C    0.21840002    0.63139993    0.00000000    -0.22710000
opls_145-9    C    0.17537013    0.60599007    0.00000000    -0.22760000
opls_145-10    C    0.28989990    0.64102003    0.00000000    0.02130000
opls_145-11    C    0.31574988    0.62373999    0.00000000    -0.15100000
opls_145-12    C    0.51895998    0.54314007    0.00000000    -0.22680000
opls_145-13    C    0.47554020    0.51896016    0.00000000    0.12320000
opls_145-14    C    0.45680997    0.47579008    0.00000000    -0.22610000
opls_142-15    C    0.46455980    0.57710986    0.00000000    0.08090000
opls_145-16    C    0.43718001    0.59476993    0.00000000    0.00720000
opls_145-17    C    0.45464010    0.63778017    0.00000000    -0.22620000
opls_145-18    C    0.42922006    0.65539016    0.00000000    -0.22720000
opls_145-19    C    0.38591009    0.63020016    0.00000000    0.02090000
opls_145-20    C    0.36859983    0.58698995    0.00000000    -0.22710000
opls_145-21    C    0.39401006    0.56937996    0.00000000    -0.22680000
opls_145-22    C    0.35897985    0.64887992    0.00000000    0.02140000
opls_145-23    C    0.37626019    0.69202016    0.00000000    -0.15100000
opls_145-24    C    0.45686002    0.97582009    0.00000000    -0.22690000
opls_145-25    C    0.48103990    0.95657988    0.00000000    0.12320000
opls_145-26    C    0.52420993    0.98102012    0.00000000    -0.22600000
opls_142-27    C    0.42289018    0.88744019    0.00000000    0.08090000
opls_145-28    C    0.40523017    0.84241009    0.00000000    0.00650000
opls_145-29    C    0.36222007    0.81686989    0.00000000    -0.22630000
opls_145-30    C    0.34461008    0.77383015    0.00000000    -0.22720000
opls_145-31    C    0.36980006    0.75571014    0.00000000    0.02090000
opls_145-32    C    0.41301003    0.78160018    0.00000000    -0.22710000
opls_145-33    C    0.43062010    0.82462998    0.00000000    -0.22770000
opls_145-34    C    0.35111995    0.71010005    0.00000000    0.02130000
opls_145-35    C    0.30797993    0.68425013    0.00000000    -0.15100000
opls_145-36    C    0.97582001    0.51896016    0.00000000    -0.22690000
opls_145-37    C    0.95658010    0.47554004    0.00000000    0.12320000
opls_145-38    C    0.98102003    0.45680986    0.00000000    -0.22610000
opls_142-39    C    0.88744010    0.46455999    0.00000000    0.08090000
opls_145-40    C    0.84240988    0.43718001    0.00000000    0.00640000
opls_145-41    C    0.81687005    0.45464012    0.00000000    -0.22630000
opls_145-42    C    0.77382997    0.42921997    0.00000000    -0.22720000
opls_145-43    C    0.75570998    0.38590995    0.00000000    0.02060000
opls_145-44    C    0.78159998    0.36860007    0.00000000    -0.22710000
opls_145-45    C    0.82462987    0.39400993    0.00000000    -0.22770000
opls_145-46    C    0.71010010    0.35897997    0.00000000    0.02130000
opls_145-47    C    0.68425012    0.37626001    0.00000000    -0.15100000
opls_145-48    C    0.48104002    0.45685993    0.00000000    -0.22690000
opls_145-49    C    0.52445997    0.48104018    0.00000000    0.12320000
opls_145-50    C    0.54319003    0.52420992    0.00000000    -0.22610000
opls_142-51    C    0.53544020    0.42289014    0.00000000    0.08090000
opls_145-52    C    0.56281999    0.40523007    0.00000000    0.00720000
opls_145-53    C    0.54536007    0.36222017    0.00000000    -0.22630000
opls_145-54    C    0.57078011    0.34461018    0.00000000    -0.22710000
opls_145-55    C    0.61409008    0.36980019    0.00000000    0.02090000
opls_145-56    C    0.63140017    0.41301005    0.00000000    -0.22710000
opls_145-57    C    0.60598994    0.43062004    0.00000000    -0.22680000
opls_145-58    C    0.64102015    0.35112008    0.00000000    0.02140000
opls_145-59    C    0.62373999    0.30798018    0.00000000    -0.15090000
opls_145-60    C    0.54313998    0.02417991    0.00000000    -0.22690000
opls_145-61    C    0.51896010    0.04342012    0.00000000    0.12330000
opls_145-62    C    0.47579007    0.01897988    0.00000000    -0.22600000
opls_142-63    C    0.57711000    0.11256016    0.00000000    0.08090000
opls_145-64    C    0.59476983    0.15758991    0.00000000    0.00650000
opls_145-65    C    0.63777993    0.18313011    0.00000000    -0.22620000
opls_145-66    C    0.65538992    0.22616985    0.00000000    -0.22720000
opls_145-67    C    0.63019994    0.24428986    0.00000000    0.02090000
opls_145-68    C    0.58699014    0.21840016    0.00000000    -0.22710000
opls_145-69    C    0.56937990    0.17537002    0.00000000    -0.22770000
opls_145-70    C    0.64888005    0.28989995    0.00000000    0.02130000
opls_145-71    C    0.69202007    0.31574987    0.00000000    -0.15100000
opls_750-72    N    0.08755994    0.55015999    0.00000000    -0.21850000
opls_750-73    N    0.44984004    0.53741012    0.00000000    -0.21840000
opls_750-74    N    0.46259002    0.91244018    0.00000000    -0.21850000
opls_750-75    N    0.91244006    0.44984001    0.00000000    -0.21830000
opls_750-76    N    0.55015996    0.46258988    0.00000000    -0.21850000
opls_750-77    N    0.53741015    0.08756016    0.00000000    -0.21840000
opls_146-78    H    0.04380995    0.46543015    0.00000000    0.19730000
opls_146-79    H    0.03424999    0.57840018    0.00000000    0.19730000
opls_144-80    H    0.09961996    0.50052014    0.00000000    0.09600000
opls_146-81    H    0.16888012    0.51025000    0.00000000    0.19740000
opls_146-82    H    0.24691997    0.55640990    0.00000000    0.19730000
opls_146-83    H    0.23244987    0.66647997    0.00000000    0.19730000
opls_146-84    H    0.15463021    0.62037014    0.00000000    0.19730000
opls_146-85    H    0.30170002    0.58865995    0.00000000    0.19740000
opls_146-86    H    0.53456988    0.57837994    0.00000000    0.19740000
opls_146-87    H    0.42159994    0.45586012    0.00000000    0.19730000
opls_144-88    H    0.49948005    0.59909019    0.00000000    0.09600000
opls_146-89    H    0.48974987    0.65863002    0.00000000    0.19730000
opls_146-90    H    0.44358989    0.69050004    0.00000000    0.19730000
opls_146-91    H    0.33351995    0.56596998    0.00000000    0.19730000
opls_146-92    H    0.37962992    0.53426013    0.00000000    0.19730000
opls_146-93    H    0.41134006    0.71304013    0.00000000    0.19740000
opls_146-94    H    0.42161987    0.95618991    0.00000000    0.19730000
opls_146-95    H    0.54414007    0.96574999    0.00000000    0.19730000
opls_144-96    H    0.40091005    0.90038006    0.00000000    0.09600000
opls_146-97    H    0.34137001    0.83111998    0.00000000    0.19730000
opls_146-98    H    0.30950001    0.75308011    0.00000000    0.19730000
opls_146-99    H    0.43402988    0.76755005    0.00000000    0.19730000
opls_146-100    H    0.46574004    0.84537007    0.00000000    0.19730000
opls_146-101    H    0.28695991    0.69829992    0.00000000    0.19750000
opls_146-102    H    0.95619022    0.53457019    0.00000000    0.19740000
opls_146-103    H    0.96575018    0.42160017    0.00000000    0.19740000
opls_144-104    H    0.90038004    0.49947986    0.00000000    0.09600000
opls_146-105    H    0.83111988    0.48975000    0.00000000    0.19730000
opls_146-106    H    0.75308003    0.44359010    0.00000000    0.19730000
opls_146-107    H    0.76755013    0.33352003    0.00000000    0.19740000
opls_146-108    H    0.84536979    0.37962986    0.00000000    0.19730000
opls_146-109    H    0.69829998    0.41134005    0.00000000    0.19730000
opls_146-110    H    0.46543012    0.42162006    0.00000000    0.19730000
opls_146-111    H    0.57840006    0.54413988    0.00000000    0.19740000
opls_144-112    H    0.50052013    0.40091015    0.00000000    0.09600000
opls_146-113    H    0.51025013    0.34136998    0.00000000    0.19730000
opls_146-114    H    0.55641011    0.30949996    0.00000000    0.19740000
opls_146-115    H    0.66648005    0.43403002    0.00000000    0.19730000
opls_146-116    H    0.62036979    0.46573987    0.00000000    0.19730000
opls_146-117    H    0.58865994    0.28695987    0.00000000    0.19740000
opls_146-118    H    0.57838013    0.04381009    0.00000000    0.19730000
opls_146-119    H    0.45585993    0.03425001    0.00000000    0.19730000
opls_144-120    H    0.59908995    0.09961994    0.00000000    0.09600000
opls_146-121    H    0.65862999    0.16888002    0.00000000    0.19730000
opls_146-122    H    0.69049999    0.24691989    0.00000000    0.19740000
opls_146-123    H    0.56597012    0.23244995    0.00000000    0.19740000
opls_146-124    H    0.53425996    0.15462993    0.00000000    0.19730000
opls_146-125    H    0.71304009    0.30170008    0.00000000    0.19730000
