#======================================================================
# Crystal Data Generated By AuToFF
#----------------------------------------------------------------------

data_AuToFF_phase_1

_cell_length_a                         25.4700
_cell_length_b                         25.4700
_cell_length_c                         22.9300
_cell_angle_alpha                      90.00
_cell_angle_beta                       90.00
_cell_angle_gamma                      120.00
_symmetry_space_group_name_H-M_alt     'P 1'
_symmetry_space_group_IT_number        1

loop_
_space_group_symop_operation_xyz
   'x, y, z'

loop_
   _atom_site_label
   _atom_site_type_symbol
   _atom_site_fract_x
   _atom_site_fract_y
   _atom_site_fract_z
   _atom_site_charge
opls_145-0    C    0.77813998    0.88763999    0.62537985    0.10430000
opls_166-1    C    0.84238009    0.92406995    0.62687004    0.20920000
opls_166-2    C    0.93723983    0.97081967    0.57691016    0.30290000
opls_145-3    C    0.97032004    0.03408021    0.57696991    -0.29270000
opls_145-4    C    0.55550974    0.77902970    0.12526995    0.10490000
opls_166-5    C    0.49118000    0.74263011    0.12684998    0.18750000
opls_166-6    C    0.39613992    0.69565008    0.07678020    0.27550000
opls_145-7    C    0.36279999    0.63236008    0.07677017    -0.29310000
opls_145-8    C    0.61124986    0.78165010    0.43931007    -0.26260000
opls_166-9    C    0.65189999    0.80592012    0.48577017    0.29010000
opls_142-10    C    0.58163979    0.78000986    0.33635020    0.07680000
opls_700-11    C    0.62584999    0.80714010    0.38296991    -0.05370000
opls_700-12    C    0.71010014    0.85849004    0.47623986    -0.05370000
opls_145-13    C    0.72474986    0.88394966    0.41980986    -0.22670000
opls_166-14    C    0.68431994    0.85933011    0.37325992    0.28350000
opls_142-15    C    0.75337970    0.88635971    0.52341997    0.07650000
opls_145-16    C    0.22203001    0.11180011    0.26526995    0.10490000
opls_166-17    C    0.15765999    0.07552022    0.26670999    0.20920000
opls_166-18    C    0.06276028    0.02871019    0.21645007    0.27620000
opls_145-19    C    0.02921976    0.96542971    0.21643000    -0.29330000
opls_145-20    C    0.44432006    0.22111991    0.76525992    0.11090000
opls_166-21    C    0.50870984    0.25750997    0.76655997    0.18880000
opls_166-22    C    0.60380979    0.30441973    0.71636982    0.26570000
opls_145-23    C    0.63730009    0.36773014    0.71635979    -0.29080000
opls_145-24    C    0.39137972    0.21439980    0.08063018    -0.26250000
opls_166-25    C    0.35050988    0.19051015    0.12692019    0.28830000
opls_142-26    C    0.41973981    0.21801985    0.97702006    0.07550000
opls_700-27    C    0.37556997    0.19094991    0.02358003    -0.05510000
opls_700-28    C    0.29074994    0.14066989    0.11640994    -0.05640000
opls_145-29    C    0.27493999    0.11717013    0.05935979    -0.23260000
opls_166-30    C    0.31577975    0.14119986    0.01304012    0.29120000
opls_142-31    C    0.24653998    0.11388012    0.16303009    0.07650000
opls_145-32    C    0.12132013    0.25086013    0.68003009    -0.22340000
opls_145-33    C    0.06819021    0.12708006    0.68006018    -0.29160000
opls_145-34    C    0.21193017    0.41562005    0.17997994    -0.21670000
opls_145-35    C    0.26496987    0.53924009    0.18016005    -0.29880000
opls_145-36    C    0.11235982    0.89049977    0.62537985    0.10430000
opls_166-37    C    0.07593005    0.91831005    0.62687004    0.20920000
opls_166-38    C    0.02918008    0.96641984    0.57691016    0.30290000
opls_145-39    C    0.96592009    0.93623987    0.57696991    -0.29270000
opls_145-40    C    0.22096989    0.77648002    0.12526995    0.10490000
opls_166-41    C    0.25737004    0.74855005    0.12684998    0.18750000
opls_166-42    C    0.30434989    0.70049012    0.07678020    0.27550000
opls_145-43    C    0.36764000    0.73043980    0.07677017    -0.29330000
opls_145-44    C    0.21834999    0.82959986    0.43931007    -0.26260000
opls_166-45    C    0.19407996    0.84598011    0.48577017    0.29010000
opls_142-46    C    0.21999011    0.80163000    0.33635020    0.07680000
opls_700-47    C    0.19285979    0.81870977    0.38296991    -0.05370000
opls_700-48    C    0.14151009    0.85160989    0.47623986    -0.05360000
opls_145-49    C    0.11605020    0.84080005    0.41980986    -0.22670000
opls_166-50    C    0.14066995    0.82498967    0.37325992    0.28350000
opls_142-51    C    0.11363993    0.86701995    0.52341997    0.07650000
opls_145-52    C    0.88819987    0.11023014    0.26526995    0.10460000
opls_166-53    C    0.92447996    0.08214014    0.26670999    0.20930000
opls_166-54    C    0.97128993    0.03404983    0.21645007    0.27620000
opls_145-55    C    0.03456994    0.06379006    0.21643000    -0.29330000
opls_145-56    C    0.77887989    0.22319991    0.76525992    0.11090000
opls_166-57    C    0.74249014    0.25120015    0.76655997    0.18880000
opls_166-58    C    0.69557983    0.29938974    0.71636982    0.26580000
opls_145-59    C    0.63226997    0.26957018    0.71635979    -0.29080000
opls_145-60    C    0.78560001    0.17698016    0.08063018    -0.26260000
opls_166-61    C    0.80949005    0.16000013    0.12692019    0.28830000
opls_142-62    C    0.78198007    0.20171986    0.97702006    0.07550000
opls_700-63    C    0.80905015    0.18462013    0.02358003    -0.05510000
opls_700-64    C    0.85933003    0.15007977    0.11640994    -0.05640000
opls_145-65    C    0.88283007    0.15777006    0.05935979    -0.23260000
opls_166-66    C    0.85880006    0.17458009    0.01304012    0.29110000
opls_142-67    C    0.88611994    0.13265998    0.16303009    0.07650000
opls_145-68    C    0.74914010    0.87046003    0.68003009    -0.22340000
opls_145-69    C    0.87292005    0.94110983    0.68006018    -0.29160000
opls_145-70    C    0.58437990    0.79630986    0.17997994    -0.21670000
opls_145-71    C    0.46076011    0.72572987    0.18016005    -0.29890000
opls_145-72    C    0.10949998    0.22185979    0.62537985    0.10430000
opls_166-73    C    0.08168986    0.15762000    0.62687004    0.20920000
opls_166-74    C    0.03357986    0.06276003    0.57691016    0.30290000
opls_145-75    C    0.06375987    0.02967993    0.57696991    -0.29270000
opls_145-76    C    0.22351975    0.44448983    0.12526995    0.10490000
opls_166-77    C    0.25144996    0.50881983    0.12684998    0.18750000
opls_166-78    C    0.29950979    0.60385979    0.07678020    0.27550000
opls_145-79    C    0.26956001    0.63720012    0.07677017    -0.29330000
opls_145-80    C    0.17040015    0.38875004    0.43931007    -0.26260000
opls_166-81    C    0.15402005    0.34809978    0.48577017    0.29010000
opls_142-82    C    0.19837010    0.41836014    0.33635020    0.07680000
opls_700-83    C    0.18129022    0.37415013    0.38296991    -0.05370000
opls_700-84    C    0.14839016    0.28990007    0.47623986    -0.05370000
opls_145-85    C    0.15920010    0.27524983    0.41980986    -0.22670000
opls_166-86    C    0.17500988    0.31567976    0.37325992    0.28360000
opls_142-87    C    0.13297975    0.24661988    0.52341997    0.07650000
opls_145-88    C    0.88976972    0.77796975    0.26526995    0.10460000
opls_166-89    C    0.91785988    0.84234010    0.26670999    0.20920000
opls_166-90    C    0.96595018    0.93723997    0.21645007    0.27620000
opls_145-91    C    0.93621007    0.97077978    0.21643000    -0.29330000
opls_145-92    C    0.77679982    0.55567973    0.76525992    0.11090000
opls_166-93    C    0.74880002    0.49128988    0.76655997    0.18880000
opls_166-94    C    0.70061015    0.39619008    0.71636982    0.26570000
opls_145-95    C    0.73043016    0.36270014    0.71635979    -0.29080000
opls_145-96    C    0.82301987    0.60862004    0.08063018    -0.26260000
opls_166-97    C    0.83999967    0.64948972    0.12692019    0.28830000
opls_142-98    C    0.79827990    0.58025984    0.97702006    0.07550000
opls_700-99    C    0.81537988    0.62442996    0.02358003    -0.05510000
opls_700-100    C    0.84991980    0.70924989    0.11640994    -0.05640000
opls_145-101    C    0.84222994    0.72505981    0.05935979    -0.23260000
opls_166-102    C    0.82542019    0.68422005    0.01304012    0.29110000
opls_142-103    C    0.86734008    0.75345991    0.16303009    0.07650000
opls_145-104    C    0.12953976    0.87867984    0.68003009    -0.22340000
opls_145-105    C    0.05888991    0.93180966    0.68006018    -0.29160000
opls_145-106    C    0.20368993    0.78807009    0.17997994    -0.21670000
opls_145-107    C    0.27427002    0.73503004    0.18016005    -0.29890000
opls_145-108    C    0.22186002    0.11236001    0.37462015    0.10440000
opls_166-109    C    0.15761991    0.07593005    0.37312996    0.20920000
opls_166-110    C    0.06275994    0.02917987    0.42308984    0.30290000
opls_145-111    C    0.02967996    0.96591979    0.42303009    -0.29270000
opls_145-112    C    0.44449003    0.22096985    0.87473005    0.10490000
opls_166-113    C    0.50882000    0.25736989    0.87315002    0.18750000
opls_166-114    C    0.60386008    0.30434992    0.92321980    0.27550000
opls_145-115    C    0.63720001    0.36763992    0.92322983    -0.29330000
opls_145-116    C    0.38875014    0.21834990    0.56068993    -0.26260000
opls_166-117    C    0.34810001    0.19407988    0.51422983    0.29010000
opls_142-118    C    0.41836021    0.21999014    0.66364980    0.07680000
opls_700-119    C    0.37415001    0.19285990    0.61703009    -0.05370000
opls_700-120    C    0.28989986    0.14150996    0.52376014    -0.05370000
opls_145-121    C    0.27524991    0.11604988    0.58019014    -0.22670000
opls_166-122    C    0.31568006    0.14066989    0.62674008    0.28350000
opls_142-123    C    0.24662008    0.11363984    0.47658003    0.07650000
opls_145-124    C    0.77796999    0.88819989    0.73473005    0.10490000
opls_166-125    C    0.84234001    0.92447978    0.73329001    0.20920000
opls_166-126    C    0.93723972    0.97128981    0.78354993    0.27620000
opls_145-127    C    0.97078001    0.03456983    0.78357000    -0.29330000
opls_145-128    C    0.55567994    0.77888009    0.23474008    0.11090000
opls_166-129    C    0.49129016    0.74249003    0.23344003    0.18890000
opls_166-130    C    0.39618999    0.69557981    0.28363018    0.26570000
opls_145-131    C    0.36269991    0.63226986    0.28364021    -0.29080000
opls_145-132    C    0.60862005    0.78559975    0.91936982    -0.26260000
opls_166-133    C    0.64949012    0.80948985    0.87307981    0.28830000
opls_142-134    C    0.58025997    0.78197969    0.02297994    0.07550000
opls_700-135    C    0.62443003    0.80905009    0.97641997    -0.05510000
opls_700-136    C    0.70925006    0.85933011    0.88359006    -0.05640000
opls_145-137    C    0.72506001    0.88282987    0.94064021    -0.23260000
opls_166-138    C    0.68422002    0.85879968    0.98695988    0.29110000
opls_142-139    C    0.75346002    0.88611988    0.83696991    0.07650000
opls_145-140    C    0.87867987    0.74913987    0.31996991    -0.22340000
opls_145-141    C    0.93180979    0.87291994    0.31993982    -0.29160000
opls_145-142    C    0.78806983    0.58437995    0.82002006    -0.21670000
opls_145-143    C    0.73503013    0.46075991    0.81983995    -0.29890000
opls_145-144    C    0.88763996    0.10949978    0.37462015    0.10430000
opls_166-145    C    0.92406995    0.08168995    0.37312996    0.20920000
opls_166-146    C    0.97081992    0.03358016    0.42308984    0.30300000
opls_145-147    C    0.03407991    0.06376013    0.42303009    -0.29270000
opls_145-148    C    0.77903011    0.22351998    0.87473005    0.10500000
opls_166-149    C    0.74262996    0.25144995    0.87315002    0.18750000
opls_166-150    C    0.69565011    0.29950988    0.92321980    0.27550000
opls_145-151    C    0.63235977    0.26955975    0.92322983    -0.29330000
opls_145-152    C    0.78165001    0.17040014    0.56068993    -0.26260000
opls_166-153    C    0.80592004    0.15401989    0.51422983    0.29010000
opls_142-154    C    0.78000989    0.19837000    0.66364980    0.07680000
opls_700-155    C    0.80713998    0.18128977    0.61703009    -0.05370000
opls_700-156    C    0.85848991    0.14839011    0.52376014    -0.05370000
opls_145-157    C    0.88394980    0.15919995    0.58019014    -0.22660000
opls_166-158    C    0.85932983    0.17500987    0.62674008    0.28350000
opls_142-159    C    0.88636007    0.13298005    0.47658003    0.07650000
opls_145-160    C    0.11180013    0.88976986    0.73473005    0.10460000
opls_166-161    C    0.07552004    0.91785986    0.73329001    0.20920000
opls_166-162    C    0.02870984    0.96594971    0.78354993    0.27620000
opls_145-163    C    0.96543006    0.93620994    0.78357000    -0.29330000
opls_145-164    C    0.22112011    0.77680009    0.23474008    0.11090000
opls_166-165    C    0.25750986    0.74879985    0.23344003    0.18880000
opls_166-166    C    0.30441994    0.70060981    0.28363018    0.26570000
opls_145-167    C    0.36773003    0.73042982    0.28364021    -0.29080000
opls_145-168    C    0.21439999    0.82301984    0.91936982    -0.26250000
opls_166-169    C    0.19050995    0.83999987    0.87307981    0.28830000
opls_142-170    C    0.21801970    0.79827969    0.02297994    0.07550000
opls_700-171    C    0.19094985    0.81537987    0.97641997    -0.05510000
opls_700-172    C    0.14066974    0.84991978    0.88359006    -0.05640000
opls_145-173    C    0.11716993    0.84222994    0.94064021    -0.23260000
opls_166-174    C    0.14119994    0.82541991    0.98695988    0.29120000
opls_142-175    C    0.11388006    0.86734002    0.83696991    0.07650000
opls_145-176    C    0.25085990    0.12953997    0.31996991    -0.22340000
opls_145-177    C    0.12707995    0.05889017    0.31993982    -0.29160000
opls_145-178    C    0.41562010    0.20369014    0.82002006    -0.21670000
opls_145-179    C    0.53923989    0.27427013    0.81983995    -0.29870000
opls_145-180    C    0.89049980    0.77813976    0.37462015    0.10430000
opls_166-181    C    0.91831014    0.84238000    0.37312996    0.20920000
opls_166-182    C    0.96642014    0.93723997    0.42308984    0.30290000
opls_145-183    C    0.93624013    0.97032007    0.42303009    -0.29270000
opls_145-184    C    0.77648002    0.55550972    0.87473005    0.10490000
opls_166-185    C    0.74854981    0.49117971    0.87315002    0.18750000
opls_166-186    C    0.70048998    0.39613976    0.92321980    0.27560000
opls_145-187    C    0.73043999    0.36279988    0.92322983    -0.29320000
opls_145-188    C    0.82959985    0.61124996    0.56068993    -0.26260000
opls_166-189    C    0.84597972    0.65189977    0.51422983    0.29010000
opls_142-190    C    0.80162990    0.58163986    0.66364980    0.07680000
opls_700-191    C    0.81870978    0.62584987    0.61703009    -0.05370000
opls_700-192    C    0.85160984    0.71009993    0.52376014    -0.05370000
opls_145-193    C    0.84079967    0.72474971    0.58019014    -0.22670000
opls_166-194    C    0.82498989    0.68431979    0.62674008    0.28350000
opls_142-195    C    0.86702025    0.75338012    0.47658003    0.07650000
opls_145-196    C    0.11023005    0.22202980    0.73473005    0.10460000
opls_166-197    C    0.08214012    0.15765990    0.73329001    0.20920000
opls_166-198    C    0.03404982    0.06276003    0.78354993    0.27620000
opls_145-199    C    0.06378993    0.02922022    0.78357000    -0.29330000
opls_145-200    C    0.22319996    0.44431982    0.23474008    0.11090000
opls_166-201    C    0.25119998    0.50871012    0.23344003    0.18880000
opls_166-202    C    0.29938985    0.60380992    0.28363018    0.26570000
opls_145-203    C    0.26956984    0.63729986    0.28364021    -0.29080000
opls_145-204    C    0.17698013    0.39137996    0.91936982    -0.26260000
opls_166-205    C    0.16000010    0.35050982    0.87307981    0.28830000
opls_142-206    C    0.20172010    0.41974016    0.02297994    0.07550000
opls_700-207    C    0.18462012    0.37557004    0.97641997    -0.05510000
opls_700-208    C    0.15008020    0.29075011    0.88359006    -0.05640000
opls_145-209    C    0.15776983    0.27493974    0.94064021    -0.23260000
opls_166-210    C    0.17457981    0.31577995    0.98695988    0.29110000
opls_142-211    C    0.13265992    0.24654009    0.83696991    0.07650000
opls_145-212    C    0.87046024    0.12132016    0.31996991    -0.22340000
opls_145-213    C    0.94110986    0.06818989    0.31993982    -0.29150000
opls_145-214    C    0.79631007    0.21192991    0.82002006    -0.21670000
opls_145-215    C    0.72572998    0.26496996    0.81983995    -0.29890000
opls_180-216    O    0.87404997    0.94141992    0.57459006    -0.18750000
opls_180-217    O    0.45937992    0.72483993    0.07474008    -0.18770000
opls_167-218    O    0.63559000    0.77975008    0.53884998    -0.39830000
opls_167-219    O    0.70072993    0.88504996    0.31987004    -0.39300000
opls_180-220    O    0.12604012    0.05760989    0.21460009    -0.18730000
opls_180-221    O    0.54049998    0.27531013    0.71439991    -0.18920000
opls_167-222    O    0.36785997    0.21457978    0.18075011    -0.38610000
opls_167-223    O    0.29839987    0.11738003    0.95905015    -0.39540000
opls_180-224    O    0.05857991    0.93262978    0.57459006    -0.18760000
opls_180-225    O    0.27516005    0.73453996    0.07474008    -0.18770000
opls_167-226    O    0.22025005    0.85583971    0.53884998    -0.39830000
opls_167-227    O    0.11494993    0.81567999    0.31987004    -0.39270000
opls_180-228    O    0.94239019    0.06843017    0.21460009    -0.18740000
opls_180-229    O    0.72468993    0.26518984    0.71439991    -0.18920000
opls_167-230    O    0.78542014    0.15328002    0.18075011    -0.38620000
opls_167-231    O    0.88261995    0.18102003    0.95905015    -0.39540000
opls_180-232    O    0.06736989    0.12594984    0.57459006    -0.18760000
opls_180-233    O    0.26546004    0.54062011    0.07474008    -0.18770000
opls_167-234    O    0.14415972    0.36440975    0.53884998    -0.39830000
opls_167-235    O    0.18432014    0.29927005    0.31987004    -0.39300000
opls_180-236    O    0.93157008    0.87395994    0.21460009    -0.18740000
opls_180-237    O    0.73481009    0.45950003    0.71439991    -0.18910000
opls_167-238    O    0.84672005    0.63213975    0.18075011    -0.38620000
opls_167-239    O    0.81897979    0.70159994    0.95905015    -0.39530000
opls_180-240    O    0.12595003    0.05858008    0.42540994    -0.18760000
opls_180-241    O    0.54062008    0.27516007    0.92525992    -0.18750000
opls_167-242    O    0.36441000    0.22024992    0.46115002    -0.39830000
opls_167-243    O    0.29927007    0.11495004    0.68012996    -0.39300000
opls_180-244    O    0.87395965    0.94238965    0.78539991    -0.18740000
opls_180-245    O    0.45950002    0.72468987    0.28560009    -0.18920000
opls_167-246    O    0.63213980    0.78541977    0.81924989    -0.38620000
opls_167-247    O    0.70160013    0.88261997    0.04094985    -0.39530000
opls_180-248    O    0.94142009    0.06737022    0.42540994    -0.18760000
opls_180-249    O    0.72483995    0.26546004    0.92525992    -0.18760000
opls_167-250    O    0.77974972    0.14415983    0.46115002    -0.39830000
opls_167-251    O    0.88505007    0.18432001    0.68012996    -0.39300000
opls_180-252    O    0.05760981    0.93156983    0.78539991    -0.18740000
opls_180-253    O    0.27530984    0.73480971    0.28560009    -0.18920000
opls_167-254    O    0.21457986    0.84671998    0.81924989    -0.38620000
opls_167-255    O    0.11738005    0.81897997    0.04094985    -0.39520000
opls_180-256    O    0.93262988    0.87404971    0.42540994    -0.18760000
opls_180-257    O    0.73453996    0.45937989    0.92525992    -0.18770000
opls_167-258    O    0.85584005    0.63558980    0.46115002    -0.39830000
opls_167-259    O    0.81567986    0.70072995    0.68012996    -0.39290000
opls_180-260    O    0.06842992    0.12604006    0.78539991    -0.18740000
opls_180-261    O    0.26518991    0.54049997    0.28560009    -0.18920000
opls_167-262    O    0.15327972    0.36785980    0.81924989    -0.38620000
opls_167-263    O    0.18102021    0.29840006    0.04094985    -0.39530000
opls_146-264    H    0.94725996    0.06036993    0.57716005    0.11480000
opls_146-265    H    0.38556966    0.60579971    0.07691016    0.11490000
opls_146-266    H    0.56694972    0.74187981    0.44749978    0.11570000
opls_168-267    H    0.67117988    0.80543004    0.56565983    0.32260000
opls_144-268    H    0.53796995    0.74027991    0.34796991    0.07860000
opls_146-269    H    0.76860974    0.92447978    0.41189010    0.11630000
opls_168-270    H    0.66466978    0.85976987    0.29345007    0.32210000
opls_144-271    H    0.79652003    0.92709973    0.51245007    0.07560000
opls_146-272    H    0.05174977    0.93864991    0.21680986    0.11620000
opls_146-273    H    0.61459976    0.39434990    0.71661012    0.11610000
opls_146-274    H    0.43668997    0.25238976    0.08933014    0.11510000
opls_168-275    H    0.33144011    0.18991988    0.20701003    0.34100000
opls_144-276    H    0.46424001    0.25616985    0.98915002    0.08140000
opls_146-277    H    0.22960006    0.07920011    0.05068993    0.11570000
opls_168-278    H    0.33483987    0.14215010    0.93291016    0.32230000
opls_144-279    H    0.20194983    0.07579994    0.15101003    0.08140000
opls_146-280    H    0.14149982    0.30002988    0.68002006    0.11450000
opls_146-281    H    0.04661991    0.07791983    0.68013999    0.11980000
opls_146-282    H    0.19173993    0.36645983    0.17988007    0.11500000
opls_146-283    H    0.28650005    0.58841981    0.18018011    0.11910000
opls_146-284    H    0.93962977    0.88688969    0.57716005    0.11480000
opls_146-285    H    0.39419990    0.77977003    0.07691016    0.11490000
opls_146-286    H    0.25811996    0.82506992    0.44749978    0.11570000
opls_168-287    H    0.19456999    0.86575010    0.56565983    0.32260000
opls_144-288    H    0.25972008    0.79768987    0.34796991    0.07410000
opls_146-289    H    0.07552002    0.84412996    0.41189010    0.11630000
opls_168-290    H    0.14023017    0.80490006    0.29345007    0.32210000
opls_144-291    H    0.07290004    0.86942002    0.51245007    0.07560000
opls_146-292    H    0.06135010    0.11309989    0.21680986    0.11610000
opls_146-293    H    0.60564989    0.22024992    0.71661012    0.11610000
opls_146-294    H    0.74761018    0.18430006    0.08933014    0.11510000
opls_168-295    H    0.81007995    0.14151993    0.20701003    0.34100000
opls_144-296    H    0.74383007    0.20807003    0.98915002    0.08140000
opls_146-297    H    0.92079984    0.15039984    0.05068993    0.11570000
opls_168-298    H    0.85784985    0.19268989    0.93291016    0.32230000
opls_144-299    H    0.92419974    0.12614977    0.15101003    0.08140000
opls_146-300    H    0.69997023    0.84147011    0.68002006    0.11450000
opls_146-301    H    0.92207977    0.96869978    0.68013999    0.11980000
opls_146-302    H    0.63353979    0.82527982    0.17988007    0.11500000
opls_146-303    H    0.41157989    0.69808008    0.18018011    0.11910000
opls_146-304    H    0.11311005    0.05273993    0.57716005    0.11490000
opls_146-305    H    0.22022982    0.61442981    0.07691016    0.11490000
opls_146-306    H    0.17493009    0.43304982    0.44749978    0.11570000
opls_168-307    H    0.13424974    0.32881986    0.56565983    0.32280000
opls_144-308    H    0.20230974    0.46202976    0.34796991    0.07860000
opls_146-309    H    0.15587001    0.23138981    0.41189010    0.11630000
opls_168-310    H    0.19510006    0.33533007    0.29345007    0.32210000
opls_144-311    H    0.13057971    0.20347979    0.51245007    0.07560000
opls_146-312    H    0.88689990    0.94824975    0.21680986    0.11610000
opls_146-313    H    0.77974973    0.38539973    0.71661012    0.11610000
opls_146-314    H    0.81570001    0.56330972    0.08933014    0.11520000
opls_168-315    H    0.85847971    0.66855973    0.20701003    0.34100000
opls_144-316    H    0.79192992    0.53576012    0.98915002    0.07780000
opls_146-317    H    0.84960010    0.77040005    0.05068993    0.11580000
opls_168-318    H    0.80730988    0.66516001    0.93291016    0.32230000
opls_144-319    H    0.87384981    0.79804984    0.15101003    0.08140000
opls_146-320    H    0.15852994    0.85850001    0.68002006    0.11450000
opls_146-321    H    0.03130010    0.95337994    0.68013999    0.11980000
opls_146-322    H    0.17472005    0.80825989    0.17988007    0.11500000
opls_146-323    H    0.30192006    0.71350011    0.18018011    0.11910000
opls_146-324    H    0.05274004    0.93963007    0.42283995    0.11480000
opls_146-325    H    0.61443011    0.39419984    0.92308984    0.11490000
opls_146-326    H    0.43305028    0.25812019    0.55250022    0.11570000
opls_168-327    H    0.32882012    0.19456996    0.43434017    0.32260000
opls_144-328    H    0.46203005    0.25972009    0.65203009    0.07860000
opls_146-329    H    0.23139026    0.07552022    0.58810990    0.11630000
opls_168-330    H    0.33533022    0.14023013    0.70654993    0.32210000
opls_144-331    H    0.20347975    0.07289981    0.48754993    0.07560000
opls_146-332    H    0.94825023    0.06135009    0.78319014    0.11610000
opls_146-333    H    0.38540024    0.60565010    0.28338988    0.11610000
opls_146-334    H    0.56330980    0.74760979    0.91066986    0.11510000
opls_168-335    H    0.66855966    0.81007967    0.79298997    0.34110000
opls_144-336    H    0.53575976    0.74382970    0.01084998    0.08140000
opls_146-337    H    0.77039994    0.92079989    0.94931007    0.11570000
opls_168-338    H    0.66516013    0.85784990    0.06708984    0.32230000
opls_144-339    H    0.79805017    0.92420006    0.84898997    0.08140000
opls_146-340    H    0.85850018    0.69997012    0.31997994    0.11450000
opls_146-341    H    0.95337986    0.92207971    0.31986001    0.11980000
opls_146-342    H    0.80825985    0.63353972    0.82011993    0.11500000
opls_146-343    H    0.71349972    0.41157974    0.81981989    0.11910000
opls_146-344    H    0.06037001    0.11310986    0.42283995    0.11480000
opls_146-345    H    0.60580010    0.22022997    0.92308984    0.11490000
opls_146-346    H    0.74188004    0.17493008    0.55250022    0.11570000
opls_168-347    H    0.80543001    0.13424990    0.43434017    0.32260000
opls_144-348    H    0.74027992    0.20231013    0.65203009    0.07410000
opls_146-349    H    0.92447998    0.15587004    0.58810990    0.11630000
opls_168-350    H    0.85976983    0.19509994    0.70654993    0.32210000
opls_144-351    H    0.92709996    0.13057998    0.48754993    0.07560000
opls_146-352    H    0.93864967    0.88689966    0.78319014    0.11490000
opls_146-353    H    0.39435011    0.77975008    0.28338988    0.11610000
opls_146-354    H    0.25238982    0.81569994    0.91066986    0.11510000
opls_168-355    H    0.18992005    0.85848007    0.79298997    0.34110000
opls_144-356    H    0.25616993    0.79192997    0.01084998    0.08140000
opls_146-357    H    0.07919993    0.84959971    0.94931007    0.11570000
opls_168-358    H    0.14215015    0.80731011    0.06708984    0.32230000
opls_144-359    H    0.07580004    0.87384978    0.84898997    0.08140000
opls_146-360    H    0.30002977    0.15852989    0.31997994    0.11450000
opls_146-361    H    0.07792001    0.03129977    0.31986001    0.11980000
opls_146-362    H    0.36646021    0.17472018    0.82011993    0.11500000
opls_146-363    H    0.58842011    0.30191992    0.81981989    0.11910000
opls_146-364    H    0.88688995    0.94726007    0.42283995    0.11480000
opls_146-365    H    0.77976995    0.38556974    0.92308984    0.11490000
opls_146-366    H    0.82506968    0.56694973    0.55250022    0.11570000
opls_168-367    H    0.86575003    0.67117968    0.43434017    0.32260000
opls_144-368    H    0.79769004    0.53796979    0.65203009    0.07420000
opls_146-369    H    0.84412976    0.76860974    0.58810990    0.11630000
opls_168-370    H    0.80489994    0.66466993    0.70654993    0.32210000
opls_144-371    H    0.86942007    0.79651976    0.48754993    0.07560000
opls_146-372    H    0.11309987    0.05174980    0.78319014    0.11610000
opls_146-373    H    0.22025005    0.61459982    0.28338988    0.11610000
opls_146-374    H    0.18429976    0.43668982    0.91066986    0.11510000
opls_168-375    H    0.14152006    0.33143981    0.79298997    0.34100000
opls_144-376    H    0.20807008    0.46423988    0.01084998    0.07780000
opls_146-377    H    0.15039990    0.22959995    0.94931007    0.11570000
opls_168-378    H    0.19269012    0.33483999    0.06708984    0.32230000
opls_144-379    H    0.12615019    0.20195016    0.84898997    0.08140000
opls_146-380    H    0.84147006    0.14149999    0.31997994    0.11450000
opls_146-381    H    0.96869990    0.04662006    0.31986001    0.11980000
opls_146-382    H    0.82527995    0.19174011    0.82011993    0.11500000
opls_146-383    H    0.69807994    0.28649989    0.81981989    0.11910000
opls_750-384    N    0.59399014    0.80144004    0.28326995    -0.27080000
opls_750-385    N    0.74069000    0.86461988    0.57637985    -0.26830000
opls_750-386    N    0.40644986    0.19835005    0.92336982    -0.27780000
opls_750-387    N    0.26000983    0.13385004    0.21657000    -0.26750000
opls_750-388    N    0.19855990    0.79254971    0.28326995    -0.27080000
opls_750-389    N    0.13538004    0.87606987    0.57637985    -0.26840000
opls_750-390    N    0.80164990    0.20809995    0.92336982    -0.27780000
opls_750-391    N    0.86614998    0.12616020    0.21657000    -0.26730000
opls_750-392    N    0.20744973    0.40600979    0.28326995    -0.27080000
opls_750-393    N    0.12392973    0.25930980    0.57637985    -0.26840000
opls_750-394    N    0.79189985    0.59355000    0.92336982    -0.27780000
opls_750-395    N    0.87383980    0.73998976    0.21657000    -0.26750000
opls_750-396    N    0.40600986    0.19855996    0.71673005    -0.27080000
opls_750-397    N    0.25931000    0.13538012    0.42362015    -0.26830000
opls_750-398    N    0.59355014    0.80164995    0.07663018    -0.27780000
opls_750-399    N    0.73999017    0.86614996    0.78343000    -0.26750000
opls_750-400    N    0.80143988    0.20744983    0.71673005    -0.27080000
opls_750-401    N    0.86461996    0.12393013    0.42362015    -0.26830000
opls_750-402    N    0.19835010    0.79190005    0.07663018    -0.27780000
opls_750-403    N    0.13385002    0.87383980    0.78343000    -0.26750000
opls_750-404    N    0.79255004    0.59398976    0.71673005    -0.27080000
opls_750-405    N    0.87607004    0.74068975    0.42362015    -0.26840000
opls_750-406    N    0.20810015    0.40645000    0.07663018    -0.27780000
opls_750-407    N    0.12615998    0.26000978    0.78343000    -0.26750000
