#======================================================================
# Crystal Data Generated By AuToFF
#----------------------------------------------------------------------

data_AuToFF_phase_1

_cell_length_a                         35.8200
_cell_length_b                         31.9000
_cell_length_c                         4.6900
_cell_angle_alpha                      90.00
_cell_angle_beta                       90.00
_cell_angle_gamma                      90.00
_symmetry_space_group_name_H-M_alt     'P 1'
_symmetry_space_group_IT_number        1

loop_
_space_group_symop_operation_xyz
   'x, y, z'

loop_
   _atom_site_label
   _atom_site_type_symbol
   _atom_site_fract_x
   _atom_site_fract_y
   _atom_site_fract_z
   _atom_site_charge
opls_700-0    C    0.96559994    0.45512006    0.66024094    -0.00450000
opls_700-1    C    0.03440006    0.54487994    0.66024094    -0.00450000
opls_700-2    C    0.53440006    0.95512006    0.33975906    -0.00450000
opls_700-3    C    0.46559994    0.04487994    0.33975906    -0.00450000
opls_700-4    C    0.53440006    0.04487994    0.33975906    -0.00450000
opls_700-5    C    0.46559994    0.95512006    0.33975906    -0.00450000
opls_700-6    C    0.96559994    0.54487994    0.66024094    -0.00450000
opls_700-7    C    0.03440006    0.45512006    0.66024094    -0.00450000
opls_145-8    C    0.93226996    0.52192006    0.61972921    -0.22710000
opls_145-9    C    0.06773004    0.47807994    0.61972921    -0.22710000
opls_145-10    C    0.56773004    0.02192006    0.38027079    -0.22710000
opls_145-11    C    0.43226996    0.97807994    0.38027079    -0.22710000
opls_145-12    C    0.56773004    0.97807994    0.38027079    -0.22710000
opls_145-13    C    0.43226996    0.02192006    0.38027079    -0.22710000
opls_145-14    C    0.93226996    0.47807994    0.61972921    -0.22710000
opls_145-15    C    0.06773004    0.52192006    0.61972921    -0.22710000
opls_700-16    C    0.96553992    0.58904013    0.70524947    0.01730000
opls_700-17    C    0.03446008    0.41095987    0.70524947    0.01730000
opls_700-18    C    0.53446008    0.08904013    0.29475053    0.01730000
opls_700-19    C    0.46553992    0.91095987    0.29475053    0.01730000
opls_700-20    C    0.53446008    0.91095987    0.29475053    0.01730000
opls_700-21    C    0.46553992    0.08904013    0.29475053    0.01730000
opls_700-22    C    0.96553992    0.41095987    0.70524947    0.01730000
opls_700-23    C    0.03446008    0.58904013    0.70524947    0.01730000
opls_700-24    C    0.93269989    0.61283009    0.75040085    0.07020000
opls_700-25    C    0.06730011    0.38716991    0.75040085    0.07020000
opls_700-26    C    0.56730011    0.11283009    0.24959915    0.07020000
opls_700-27    C    0.43269989    0.88716991    0.24959915    0.07020000
opls_700-28    C    0.56730011    0.88716991    0.24959915    0.07020000
opls_700-29    C    0.43269989    0.11283009    0.24959915    0.07020000
opls_700-30    C    0.93269989    0.38716991    0.75040085    0.07020000
opls_700-31    C    0.06730011    0.61283009    0.75040085    0.07020000
opls_145-32    C    0.90719989    0.60107994    0.96637953    -0.20110000
opls_145-33    C    0.09280011    0.39892006    0.96637953    -0.20110000
opls_145-34    C    0.59280011    0.10107994    0.03362047    -0.20110000
opls_145-35    C    0.40719989    0.89892006    0.03362047    -0.20110000
opls_145-36    C    0.59280011    0.89892006    0.03362047    -0.20110000
opls_145-37    C    0.40719989    0.10107994    0.03362047    -0.20110000
opls_145-38    C    0.90719989    0.39892006    0.96637953    -0.20110000
opls_145-39    C    0.09280011    0.60107994    0.96637953    -0.20110000
opls_145-40    C    0.87442993    0.62430000    0.01356930    -0.23440000
opls_145-41    C    0.12557007    0.37570000    0.01356930    -0.23440000
opls_145-42    C    0.62557007    0.12430000    0.98643070    -0.23440000
opls_145-43    C    0.37442993    0.87570000    0.98643070    -0.23440000
opls_145-44    C    0.62557007    0.87570000    0.98643070    -0.23440000
opls_145-45    C    0.37442993    0.12430000    0.98643070    -0.23440000
opls_145-46    C    0.87442993    0.37570000    0.01356930    -0.23440000
opls_145-47    C    0.12557007    0.62430000    0.01356930    -0.23440000
opls_145-48    C    0.86674009    0.66036991    0.85160981    0.17730000
opls_145-49    C    0.13325991    0.33962006    0.85160981    0.17730000
opls_145-50    C    0.63325991    0.16036991    0.14839019    0.17730000
opls_145-51    C    0.36674009    0.83962006    0.14839019    0.17730000
opls_145-52    C    0.63325991    0.83962006    0.14839019    0.17730000
opls_145-53    C    0.36674009    0.16036991    0.14839019    0.17730000
opls_145-54    C    0.86674009    0.33962006    0.85160981    0.17730000
opls_145-55    C    0.13325991    0.66036991    0.85160981    0.17730000
opls_145-56    C    0.89236991    0.67283009    0.63907036    -0.23340000
opls_145-57    C    0.10763009    0.32716991    0.63907036    -0.23340000
opls_145-58    C    0.60763009    0.17283009    0.36092964    -0.23340000
opls_145-59    C    0.39236991    0.82716991    0.36092964    -0.23340000
opls_145-60    C    0.60763009    0.82716991    0.36092964    -0.23340000
opls_145-61    C    0.39236991    0.17283009    0.36092964    -0.23340000
opls_145-62    C    0.89236991    0.32716991    0.63907036    -0.23340000
opls_145-63    C    0.10763009    0.67283009    0.63907036    -0.23340000
opls_145-64    C    0.92496008    0.64925987    0.58881023    -0.20090000
opls_145-65    C    0.07503992    0.35074013    0.58881023    -0.20090000
opls_145-66    C    0.57503992    0.14925987    0.41118977    -0.20090000
opls_145-67    C    0.42496008    0.85074013    0.41118977    -0.20090000
opls_145-68    C    0.57503992    0.85074013    0.41118977    -0.20090000
opls_145-69    C    0.42496008    0.14925987    0.41118977    -0.20090000
opls_145-70    C    0.92496008    0.35074013    0.58881023    -0.20090000
opls_145-71    C    0.07503992    0.64925987    0.58881023    -0.20090000
opls_142-72    C    0.31756002    0.21383009    0.20459915    0.09310000
opls_142-73    C    0.68243998    0.78616991    0.20459915    0.09310000
opls_142-74    C    0.18243998    0.71383009    0.79540085    0.09310000
opls_142-75    C    0.81756002    0.28616991    0.79540085    0.09310000
opls_142-76    C    0.18243998    0.28616991    0.79540085    0.09310000
opls_142-77    C    0.81756002    0.71383009    0.79540085    0.09310000
opls_142-78    C    0.31756002    0.78616991    0.20459915    0.09310000
opls_142-79    C    0.68243998    0.21383009    0.20459915    0.09310000
opls_145-80    C    0.00000000    0.61018997    0.72655011    -0.10470000
opls_145-81    C    0.00000000    0.38981003    0.72655011    -0.10470000
opls_145-82    C    0.50000000    0.11018997    0.27344989    -0.10470000
opls_145-83    C    0.50000000    0.88981003    0.27344989    -0.10470000
opls_700-84    C    0.00000000    0.47756991    0.65640085    0.00140000
opls_700-85    C    0.00000000    0.52243009    0.65640085    0.00140000
opls_700-86    C    0.50000000    0.97756991    0.34359915    0.00140000
opls_700-87    C    0.50000000    0.02243009    0.34359915    0.00140000
opls_700-88    C    0.71606002    0.76915987    0.09830917    -0.03040000
opls_700-89    C    0.28393998    0.23084013    0.09830917    -0.03040000
opls_700-90    C    0.78393998    0.26915987    0.90169083    -0.03040000
opls_700-91    C    0.21606002    0.73084013    0.90169083    -0.03040000
opls_700-92    C    0.78393998    0.73084013    0.90169083    -0.03040000
opls_700-93    C    0.21606002    0.26915987    0.90169083    -0.03040000
opls_700-94    C    0.71606002    0.23084013    0.09830917    -0.03040000
opls_700-95    C    0.28393998    0.76915987    0.09830917    -0.03040000
opls_145-96    C    0.72839001    0.26974984    0.20860981    -0.25590000
opls_166-97    C    0.76147990    0.28865016    0.11336034    0.22420000
opls_145-98    C    0.27160999    0.73025016    0.20860981    -0.25590000
opls_166-99    C    0.23852010    0.71134984    0.11336034    0.22420000
opls_145-100    C    0.77160999    0.76975016    0.79139019    -0.25590000
opls_166-101    C    0.73852010    0.78864984    0.88663966    0.22420000
opls_145-102    C    0.22839001    0.23024984    0.79139019    -0.25590000
opls_166-103    C    0.26147990    0.21135016    0.88663966    0.22420000
opls_145-104    C    0.77160999    0.23024984    0.79139019    -0.25590000
opls_166-105    C    0.73852010    0.21135016    0.88663966    0.22420000
opls_145-106    C    0.22839001    0.76975016    0.79139019    -0.25590000
opls_166-107    C    0.26147990    0.78864984    0.88663966    0.22420000
opls_145-108    C    0.72839001    0.73025016    0.20860981    -0.25590000
opls_166-109    C    0.76147990    0.71134984    0.11336034    0.22420000
opls_145-110    C    0.27160999    0.26974984    0.20860981    -0.25590000
opls_166-111    C    0.23852010    0.28865016    0.11336034    0.22420000
opls_750-112    N    0.83475991    0.68063009    0.91720043    -0.35300000
opls_750-113    N    0.16524009    0.31935987    0.91720043    -0.35590000
opls_750-114    N    0.66524009    0.18063009    0.08279957    -0.35300000
opls_750-115    N    0.33475991    0.81935987    0.08279957    -0.35590000
opls_750-116    N    0.66524009    0.81935987    0.08279957    -0.35590000
opls_750-117    N    0.33475991    0.18063009    0.08279957    -0.35300000
opls_750-118    N    0.83475991    0.31935987    0.91720043    -0.35590000
opls_750-119    N    0.16524009    0.68063009    0.91720043    -0.35300000
opls_146-120    H    0.90721999    0.53680000    0.59326013    0.19960000
opls_146-121    H    0.09278001    0.46320000    0.59326013    0.19960000
opls_146-122    H    0.59278001    0.03680000    0.40673987    0.19960000
opls_146-123    H    0.40721999    0.96320000    0.40673987    0.19960000
opls_146-124    H    0.59278001    0.96320000    0.40673987    0.19960000
opls_146-125    H    0.40721999    0.03680000    0.40673987    0.19960000
opls_146-126    H    0.90721999    0.46320000    0.59326013    0.19960000
opls_146-127    H    0.09278001    0.53680000    0.59326013    0.19960000
opls_146-128    H    0.91240006    0.57552006    0.09217058    0.19960000
opls_146-129    H    0.08759994    0.42447994    0.09217058    0.19960000
opls_146-130    H    0.58758989    0.07552006    0.90782942    0.19960000
opls_146-131    H    0.41240006    0.92447994    0.90782942    0.19960000
opls_146-132    H    0.58758989    0.92447994    0.90782942    0.19960000
opls_146-133    H    0.41240006    0.07552006    0.90782942    0.19960000
opls_146-134    H    0.91240006    0.42447994    0.09217058    0.19960000
opls_146-135    H    0.08759994    0.57552006    0.09217058    0.19960000
opls_146-136    H    0.85617002    0.61501003    0.16914072    0.19960000
opls_146-137    H    0.14382998    0.38498997    0.16914072    0.19960000
opls_146-138    H    0.64382998    0.11501003    0.83085928    0.19960000
opls_146-139    H    0.35617002    0.88498997    0.83085928    0.19960000
opls_146-140    H    0.64382998    0.88498997    0.83085928    0.19960000
opls_146-141    H    0.35617002    0.11501003    0.83085928    0.19960000
opls_146-142    H    0.85617002    0.38498997    0.16914072    0.19960000
opls_146-143    H    0.14382998    0.61501003    0.16914072    0.19960000
opls_146-144    H    0.88752010    0.69895987    0.51911940    0.19960000
opls_146-145    H    0.11247990    0.30104013    0.51911940    0.19960000
opls_146-146    H    0.61247990    0.19895987    0.48088060    0.19960000
opls_146-147    H    0.38752010    0.80104013    0.48088060    0.19960000
opls_146-148    H    0.61247990    0.80104013    0.48088060    0.19960000
opls_146-149    H    0.38752010    0.19895987    0.48088060    0.19960000
opls_146-150    H    0.88752010    0.30104013    0.51911940    0.19960000
opls_146-151    H    0.11247990    0.69895987    0.51911940    0.19960000
opls_146-152    H    0.94293998    0.65874984    0.43166951    0.19960000
opls_146-153    H    0.05706002    0.34125016    0.43166951    0.19960000
opls_146-154    H    0.55706002    0.15874984    0.56833049    0.19960000
opls_146-155    H    0.44293998    0.84125016    0.56833049    0.19960000
opls_146-156    H    0.55706002    0.84125016    0.56833049    0.19960000
opls_146-157    H    0.44293998    0.15874984    0.56833049    0.19960000
opls_146-158    H    0.94293998    0.34125016    0.43166951    0.19960000
opls_146-159    H    0.05706002    0.65874984    0.43166951    0.19960000
opls_146-160    H    0.00000000    0.64182006    0.76662047    0.19960000
opls_146-161    H    0.00000000    0.35817994    0.76662047    0.19960000
opls_146-162    H    0.50000000    0.14182006    0.23337953    0.19960000
opls_146-163    H    0.50000000    0.85817994    0.23337953    0.19960000
opls_144-164    H    0.32941011    0.77268997    0.38078038    0.09730000
opls_146-165    H    0.71337996    0.28522006    0.36155011    0.19960000
opls_168-166    H    0.29215997    0.84025016    0.82752026    0.28900000
opls_144-167    H    0.67058989    0.22731003    0.38078038    0.09730000
opls_146-168    H    0.28662004    0.71477994    0.36155011    0.19960000
opls_168-169    H    0.70784003    0.15975016    0.82752026    0.28900000
opls_144-170    H    0.17058989    0.27268997    0.61921962    0.09730000
opls_146-171    H    0.78662004    0.78522006    0.63844989    0.19960000
opls_168-172    H    0.20784003    0.34025016    0.17247974    0.28900000
opls_144-173    H    0.82941011    0.72731003    0.61921962    0.09730000
opls_146-174    H    0.21337996    0.21477994    0.63844989    0.19960000
opls_168-175    H    0.79215997    0.65975016    0.17247974    0.28900000
opls_144-176    H    0.17058989    0.72731003    0.61921962    0.09730000
opls_146-177    H    0.78662004    0.21477994    0.63844989    0.19960000
opls_168-178    H    0.20784003    0.65975016    0.17247974    0.28900000
opls_144-179    H    0.82941011    0.27268997    0.61921962    0.09730000
opls_146-180    H    0.21337996    0.78522006    0.63844989    0.19960000
opls_168-181    H    0.79215997    0.34025016    0.17247974    0.28900000
opls_144-182    H    0.32941011    0.22731003    0.38078038    0.09730000
opls_146-183    H    0.71337996    0.71477994    0.36155011    0.19960000
opls_168-184    H    0.29215997    0.15975016    0.82752026    0.28900000
opls_144-185    H    0.67058989    0.77268997    0.38078038    0.09730000
opls_146-186    H    0.28662004    0.28522006    0.36155011    0.19960000
opls_168-187    H    0.70784003    0.84025016    0.82752026    0.28900000
opls_167-188    O    0.76962004    0.32582006    0.23630917    -0.47200000
opls_167-189    O    0.23037996    0.67417994    0.23630917    -0.47200000
opls_167-190    O    0.73037996    0.82582006    0.76369083    -0.47200000
opls_167-191    O    0.26962004    0.17417994    0.76369083    -0.47200000
opls_167-192    O    0.73037996    0.17417994    0.76369083    -0.47200000
opls_167-193    O    0.26962004    0.82582006    0.76369083    -0.47200000
opls_167-194    O    0.76962004    0.67417994    0.23630917    -0.47200000
opls_167-195    O    0.23037996    0.32582006    0.23630917    -0.47200000
