#======================================================================
# Crystal Data Generated By AuToFF
#----------------------------------------------------------------------

data_AuToFF_phase_1

_cell_length_a                         27.5000
_cell_length_b                         27.5000
_cell_length_c                         6.8000
_cell_angle_alpha                      90.00
_cell_angle_beta                       90.00
_cell_angle_gamma                      120.00
_symmetry_space_group_name_H-M_alt     'P 1'
_symmetry_space_group_IT_number        1

loop_
_space_group_symop_operation_xyz
   'x, y, z'

loop_
   _atom_site_label
   _atom_site_type_symbol
   _atom_site_fract_x
   _atom_site_fract_y
   _atom_site_fract_z
   _atom_site_charge
opls_145-0    C    0.36414984    0.64414987    0.23756029    -0.10330000
opls_280-1    C    0.38903973    0.69785982    0.23643971    0.22420000
opls_142-2    C    0.39803997    0.62389012    0.23702941    0.10740000
opls_145-3    C    0.63410007    0.35748015    0.23495000    -0.10630000
opls_142-4    C    0.59740013    0.37771008    0.23582941    0.09090000
opls_280-5    C    0.60839012    0.29941005    0.23592059    0.26530000
opls_522-6    C    0.59312013    0.45351008    0.76496029    0.11520000
opls_521-7    C    0.53787009    0.42484999    0.76195000    0.01650000
opls_522-8    C    0.42182981    0.55631999    0.76466029    0.12470000
opls_522-9    C    0.51217977    0.57681991    0.76437941    -0.19860000
opls_522-10    C    0.58675999    0.53225015    0.76968971    -0.19860000
opls_523-11    C    0.47561006    0.59320994    0.75977059    -0.19860000
opls_523-12    C    0.61719008    0.50859979    0.76716029    -0.19860000
opls_521-13    C    0.53179999    0.50167998    0.76795000    0.11870000
opls_521-14    C    0.49598989    0.52313978    0.76967059    0.12090000
opls_521-15    C    0.40733022    0.50256008    0.77112059    0.01450000
opls_145-16    C    0.35584973    0.71999983    0.23756029    -0.10330000
opls_280-17    C    0.30214007    0.69117977    0.23643971    0.22430000
opls_142-18    C    0.37610982    0.77414983    0.23702941    0.10740000
opls_145-19    C    0.64251984    0.27662004    0.23495000    -0.10630000
opls_142-20    C    0.62229007    0.21968995    0.23582941    0.09090000
opls_280-21    C    0.70058990    0.30897979    0.23592059    0.26530000
opls_522-22    C    0.54649009    0.13961001    0.76496029    0.11520000
opls_521-23    C    0.57514999    0.11301998    0.76195000    0.01650000
opls_522-24    C    0.44368016    0.86551015    0.76466029    0.12470000
opls_522-25    C    0.42317993    0.93535987    0.76437941    -0.19860000
opls_522-26    C    0.46774983    0.05450984    0.76968971    -0.19860000
opls_523-27    C    0.40679010    0.88239985    0.75977059    -0.19860000
opls_523-28    C    0.49140016    0.10859013    0.76716029    -0.19850000
opls_521-29    C    0.49832002    0.03012005    0.76795000    0.11870000
opls_521-30    C    0.47685983    0.97284984    0.76967059    0.12090000
opls_521-31    C    0.49743989    0.90476996    0.77112059    0.01450000
opls_145-32    C    0.27999985    0.63584988    0.23756029    -0.10330000
opls_280-33    C    0.30882000    0.61096000    0.23643971    0.22420000
opls_142-34    C    0.22584984    0.60196005    0.23702941    0.10740000
opls_145-35    C    0.72337972    0.36589981    0.23495000    -0.10630000
opls_142-36    C    0.78030980    0.40259997    0.23582941    0.09100000
opls_280-37    C    0.69101999    0.39161016    0.23592059    0.26520000
opls_522-38    C    0.86038978    0.40687992    0.76496029    0.11520000
opls_521-39    C    0.88697992    0.46213002    0.76195000    0.01650000
opls_522-40    C    0.13449002    0.57816986    0.76466029    0.12470000
opls_522-41    C    0.06464008    0.48781980    0.76437941    -0.19860000
opls_522-42    C    0.94549018    0.41324001    0.76968971    -0.19860000
opls_523-43    C    0.11759999    0.52438979    0.75977059    -0.19860000
opls_523-44    C    0.89141013    0.38281008    0.76716029    -0.19860000
opls_521-45    C    0.96987998    0.46819997    0.76795000    0.11870000
opls_521-46    C    0.02715007    0.50400996    0.76967059    0.12090000
opls_521-47    C    0.09522989    0.59266996    0.77112059    0.01450000
opls_145-48    C    0.63585016    0.35585013    0.73756029    -0.10330000
opls_280-49    C    0.61095991    0.30214018    0.73643971    0.22420000
opls_142-50    C    0.60196003    0.37610988    0.73702941    0.10740000
opls_145-51    C    0.36589993    0.64251985    0.73495000    -0.10630000
opls_142-52    C    0.40259987    0.62228992    0.73582941    0.09090000
opls_280-53    C    0.39160988    0.70058995    0.73592059    0.26520000
opls_522-54    C    0.40687987    0.54648992    0.26496029    0.11520000
opls_521-55    C    0.46212991    0.57515001    0.26195000    0.01650000
opls_522-56    C    0.57817019    0.44368001    0.26466029    0.12470000
opls_522-57    C    0.48782023    0.42318009    0.26437941    -0.19860000
opls_522-58    C    0.41324001    0.46774985    0.26968971    -0.19860000
opls_523-59    C    0.52438994    0.40679006    0.25977059    -0.19860000
opls_523-60    C    0.38281008    0.49139979    0.26716029    -0.19860000
opls_521-61    C    0.46820001    0.49832002    0.26795000    0.11870000
opls_521-62    C    0.50400990    0.47685980    0.26967059    0.12090000
opls_521-63    C    0.59266978    0.49743992    0.27112059    0.01450000
opls_145-64    C    0.64414990    0.28000017    0.73756029    -0.10330000
opls_280-65    C    0.69785972    0.30881981    0.73643971    0.22420000
opls_142-66    C    0.62389018    0.22585017    0.73702941    0.10740000
opls_145-67    C    0.35747980    0.72337996    0.73495000    -0.10630000
opls_142-68    C    0.37770993    0.78031005    0.73582941    0.09090000
opls_280-69    C    0.29940989    0.69101979    0.73592059    0.26520000
opls_522-70    C    0.45350991    0.86038999    0.26496029    0.11520000
opls_521-71    C    0.42485001    0.88698002    0.26195000    0.01650000
opls_522-72    C    0.55631984    0.13448985    0.26466029    0.12470000
opls_522-73    C    0.57682007    0.06464013    0.26437941    -0.19860000
opls_522-74    C    0.53224996    0.94548974    0.26968971    -0.19860000
opls_523-75    C    0.59320990    0.11760015    0.25977059    -0.19860000
opls_523-76    C    0.50859984    0.89140987    0.26716029    -0.19860000
opls_521-77    C    0.50167998    0.96987995    0.26795000    0.11870000
opls_521-78    C    0.52314017    0.02715016    0.26967059    0.12090000
opls_521-79    C    0.50256011    0.09523004    0.27112059    0.01450000
opls_145-80    C    0.72000015    0.36415012    0.73756029    -0.10330000
opls_280-81    C    0.69118000    0.38904000    0.73643971    0.22420000
opls_142-82    C    0.77414979    0.39803995    0.73702941    0.10740000
opls_145-83    C    0.27661971    0.63409977    0.73495000    -0.10630000
opls_142-84    C    0.21968984    0.59740003    0.73582941    0.09090000
opls_280-85    C    0.30898001    0.60838984    0.73592059    0.26520000
opls_522-86    C    0.13960986    0.59312008    0.26496029    0.11520000
opls_521-87    C    0.11302008    0.53786998    0.26195000    0.01650000
opls_522-88    C    0.86550998    0.42183014    0.26466029    0.12470000
opls_522-89    C    0.93536007    0.51217978    0.26437941    -0.19860000
opls_522-90    C    0.05450982    0.58675999    0.26968971    -0.19860000
opls_523-91    C    0.88239980    0.47560979    0.25977059    -0.19860000
opls_523-92    C    0.10858987    0.61718992    0.26716029    -0.19860000
opls_521-93    C    0.03012002    0.53180003    0.26795000    0.11870000
opls_521-94    C    0.97284993    0.49599004    0.26967059    0.12090000
opls_521-95    C    0.90477011    0.40733004    0.27112059    0.01450000
opls_272-96    O    0.44359971    0.72937978    0.23512941    -0.47760000
opls_272-97    O    0.55423990    0.26551980    0.23746029    -0.47770000
opls_272-98    O    0.27062020    0.71422003    0.23512941    -0.47760000
opls_272-99    O    0.73448002    0.28872005    0.23746029    -0.47760000
opls_272-100    O    0.28577988    0.55639977    0.23512941    -0.47760000
opls_272-101    O    0.71128007    0.44576015    0.23746029    -0.47770000
opls_272-102    O    0.55639972    0.27061980    0.73512941    -0.47760000
opls_272-103    O    0.44575989    0.73447978    0.73746029    -0.47770000
opls_272-104    O    0.72938017    0.28577997    0.73512941    -0.47770000
opls_272-105    O    0.26551998    0.71127995    0.73746029    -0.47770000
opls_272-106    O    0.71421991    0.44359981    0.73512941    -0.47750000
opls_272-107    O    0.28871993    0.55423985    0.73746029    -0.47770000
opls_238-108    N    0.37777998    0.56974979    0.23805000    -0.31620000
opls_238-109    N    0.61500993    0.42795005    0.23441029    -0.30060000
opls_520-110    N    0.50835992    0.44813002    0.76263971    -0.16390000
opls_520-111    N    0.44359982    0.48700983    0.77285000    -0.16770000
opls_238-112    N    0.43024991    0.80803000    0.23805000    -0.31640000
opls_238-113    N    0.57204990    0.18705980    0.23441029    -0.30060000
opls_520-114    N    0.55186992    0.06023002    0.76263971    -0.16390000
opls_520-115    N    0.51298990    0.95658998    0.77285000    -0.16780000
opls_238-116    N    0.19196990    0.62221980    0.23805000    -0.31630000
opls_238-117    N    0.81294017    0.38499015    0.23441029    -0.30060000
opls_520-118    N    0.93977017    0.49163997    0.76263971    -0.16390000
opls_520-119    N    0.04341007    0.55639977    0.77285000    -0.16780000
opls_238-120    N    0.62221981    0.43024979    0.73805000    -0.31640000
opls_238-121    N    0.38499007    0.57204995    0.73441029    -0.30050000
opls_520-122    N    0.49164008    0.55186998    0.26263971    -0.16380000
opls_520-123    N    0.55640018    0.51299017    0.27285000    -0.16780000
opls_238-124    N    0.56975009    0.19197000    0.73805000    -0.31640000
opls_238-125    N    0.42794989    0.81293978    0.73441029    -0.30060000
opls_520-126    N    0.44813008    0.93976998    0.26263971    -0.16390000
opls_520-127    N    0.48701010    0.04341002    0.27285000    -0.16780000
opls_238-128    N    0.80802989    0.37777978    0.73805000    -0.31640000
opls_238-129    N    0.18705983    0.61500985    0.73441029    -0.30060000
opls_520-130    N    0.06023020    0.50836003    0.26263971    -0.16390000
opls_520-131    N    0.95658972    0.44359981    0.27285000    -0.16780000
opls_910-132    H    0.66123995    0.45467990    0.26083971    0.22430000
opls_910-133    H    0.34595974    0.54761985    0.26670000    0.26980000
opls_144-134    H    0.44533020    0.65128004    0.26343971    0.02520000
opls_144-135    H    0.56453022    0.35492007    0.26368971    0.09120000
opls_525-136    H    0.60303000    0.56917999    0.77250000    0.22630000
opls_526-137    H    0.65411997    0.52939993    0.76693971    0.22630000
opls_524-138    H    0.37139987    0.47690011    0.77432059    0.10620000
opls_526-139    H    0.48688994    0.62933989    0.75342059    0.22630000
opls_525-140    H    0.54831006    0.60188993    0.76397059    0.22630000
opls_524-141    H    0.51789980    0.37956978    0.74121029    0.08760000
opls_910-142    H    0.54531998    0.20655996    0.26083971    0.22430000
opls_910-143    H    0.45238006    0.79833975    0.26670000    0.26970000
opls_144-144    H    0.34871998    0.79405014    0.26343971    0.02520000
opls_144-145    H    0.64507993    0.20961005    0.26368971    0.09120000
opls_525-146    H    0.43081988    0.03384994    0.77250000    0.22640000
opls_526-147    H    0.47059991    0.12471983    0.76693971    0.22640000
opls_524-148    H    0.52310011    0.89449985    0.77432059    0.10620000
opls_526-149    H    0.37066002    0.85754985    0.75342059    0.22640000
opls_525-150    H    0.39810990    0.94641980    0.76397059    0.22640000
opls_524-151    H    0.62043018    0.13833018    0.74121029    0.08760000
opls_910-152    H    0.79344007    0.33876015    0.26083971    0.22430000
opls_910-153    H    0.20165999    0.65403998    0.26670000    0.26970000
opls_144-154    H    0.20594982    0.55466982    0.26343971    0.02520000
opls_144-155    H    0.79038985    0.43546988    0.26368971    0.09120000
opls_525-156    H    0.96615012    0.39697007    0.77250000    0.22630000
opls_526-157    H    0.87527991    0.34587982    0.76693971    0.22640000
opls_524-158    H    0.10550002    0.62860004    0.77432059    0.10620000
opls_526-159    H    0.14244983    0.51310984    0.75342059    0.22630000
opls_525-160    H    0.05357983    0.45168985    0.76397059    0.22630000
opls_524-161    H    0.86167002    0.48210004    0.74121029    0.08760000
opls_910-162    H    0.33876005    0.54532010    0.76083971    0.22430000
opls_910-163    H    0.65403989    0.45238015    0.76670000    0.26970000
opls_144-164    H    0.55466980    0.34871996    0.76343971    0.02520000
opls_144-165    H    0.43546978    0.64507993    0.76368971    0.09130000
opls_525-166    H    0.39697000    0.43082001    0.27250000    0.22630000
opls_526-167    H    0.34588003    0.47060007    0.26693971    0.22630000
opls_524-168    H    0.62860013    0.52309989    0.27432059    0.10620000
opls_526-169    H    0.51311006    0.37066011    0.25342059    0.22640000
opls_525-170    H    0.45168994    0.39811007    0.26397059    0.22630000
opls_524-171    H    0.48209999    0.62042980    0.24121029    0.08760000
opls_910-172    H    0.45468002    0.79344004    0.76083971    0.22430000
opls_910-173    H    0.54762010    0.20165983    0.76670000    0.26970000
opls_144-174    H    0.65128002    0.20594986    0.76343971    0.02520000
opls_144-175    H    0.35492007    0.79038995    0.76368971    0.09120000
opls_525-176    H    0.56918012    0.96615006    0.27250000    0.22640000
opls_526-177    H    0.52939988    0.87527975    0.26693971    0.22630000
opls_524-178    H    0.47690026    0.10550015    0.27432059    0.10620000
opls_526-179    H    0.62933998    0.14245015    0.25342059    0.22630000
opls_525-180    H    0.60189010    0.05358020    0.26397059    0.22640000
opls_524-181    H    0.37956982    0.86166982    0.24121029    0.08760000
opls_910-182    H    0.20655993    0.66123985    0.76083971    0.22430000
opls_910-183    H    0.79834001    0.34596002    0.76670000    0.26980000
opls_144-184    H    0.79405018    0.44533018    0.76343971    0.02520000
opls_144-185    H    0.20961015    0.56453012    0.76368971    0.09120000
opls_525-186    H    0.03384988    0.60302993    0.27250000    0.22630000
opls_526-187    H    0.12471988    0.65411976    0.26693971    0.22640000
opls_524-188    H    0.89449998    0.37139996    0.27432059    0.10620000
opls_526-189    H    0.85755017    0.48689016    0.25342059    0.22630000
opls_525-190    H    0.94642017    0.54831015    0.26397059    0.22630000
opls_524-191    H    0.13832998    0.51789996    0.24121029    0.08760000
