#======================================================================
# Crystal Data Generated By AuToFF
#----------------------------------------------------------------------

data_AuToFF_phase_1

_cell_length_a                         27.8100
_cell_length_b                         29.4500
_cell_length_c                         4.3400
_cell_angle_alpha                      90.00
_cell_angle_beta                       90.00
_cell_angle_gamma                      90.00
_symmetry_space_group_name_H-M_alt     'P 1'
_symmetry_space_group_IT_number        1

loop_
_space_group_symop_operation_xyz
   'x, y, z'

loop_
   _atom_site_label
   _atom_site_type_symbol
   _atom_site_fract_x
   _atom_site_fract_y
   _atom_site_fract_z
   _atom_site_charge
opls_602-0    H    0.59304998    0.49124992    0.24264977    0.09730000
opls_601-1    H    0.64832003    0.42955993    0.10035945    0.12180000
opls_599-2    H    0.54318015    0.33079015    0.40973963    0.12290000
opls_146-3    H    0.58337001    0.70951986    0.99102074    0.12210000
opls_146-4    H    0.63907983    0.77373005    0.00770968    0.11820000
opls_146-5    H    0.75237001    0.68806995    0.65999078    0.12120000
opls_146-6    H    0.69650018    0.62451002    0.62976959    0.11890000
opls_144-7    H    0.71537001    0.80928998    0.81481106    0.10880000
opls_547-8    H    0.81814995    0.95857997    0.58378111    0.10280000
opls_547-9    H    0.95422006    0.82640000    0.52615899    0.12060000
opls_146-10    H    0.91679000    0.84813005    0.01612903    0.11650000
opls_146-11    H    0.86135994    0.78446010    0.08844009    0.12290000
opls_146-12    H    0.76787990    0.84008014    0.39741014    0.12070000
opls_146-13    H    0.82716001    0.89844007    0.28279032    0.11890000
opls_602-14    H    0.40695002    0.50875008    0.24264977    0.09730000
opls_601-15    H    0.35167997    0.57044007    0.10035945    0.12180000
opls_599-16    H    0.45681985    0.66920985    0.40973963    0.12300000
opls_146-17    H    0.41662999    0.29048014    0.99102074    0.12200000
opls_146-18    H    0.36092017    0.22626995    0.00770968    0.11820000
opls_146-19    H    0.24762999    0.31193005    0.65999078    0.12120000
opls_146-20    H    0.30349982    0.37548998    0.62976959    0.11890000
opls_144-21    H    0.28462999    0.19071002    0.81481106    0.10880000
opls_547-22    H    0.18185005    0.04142003    0.58378111    0.10280000
opls_547-23    H    0.04577994    0.17360000    0.52615899    0.12060000
opls_146-24    H    0.08321000    0.15186995    0.01612903    0.11650000
opls_146-25    H    0.13864006    0.21553990    0.08844009    0.12290000
opls_146-26    H    0.23212010    0.15991986    0.39741014    0.12070000
opls_146-27    H    0.17283999    0.10155993    0.28279032    0.11880000
opls_602-28    H    0.40695002    0.49124992    0.75735023    0.09730000
opls_601-29    H    0.35167997    0.42955993    0.89964055    0.12180000
opls_599-30    H    0.45681985    0.33079015    0.59026037    0.12290000
opls_146-31    H    0.41662999    0.70951986    0.00897926    0.12200000
opls_146-32    H    0.36092017    0.77373005    0.99229032    0.11820000
opls_146-33    H    0.24762999    0.68806995    0.34000922    0.12120000
opls_146-34    H    0.30349982    0.62451002    0.37023041    0.11890000
opls_144-35    H    0.28462999    0.80928998    0.18518894    0.10880000
opls_547-36    H    0.18185005    0.95857997    0.41621889    0.10280000
opls_547-37    H    0.04577994    0.82640000    0.47384101    0.12060000
opls_146-38    H    0.08321000    0.84813005    0.98387097    0.11650000
opls_146-39    H    0.13864006    0.78446010    0.91155991    0.12290000
opls_146-40    H    0.23212010    0.84008014    0.60258986    0.12070000
opls_146-41    H    0.17283999    0.89844007    0.71720968    0.11880000
opls_602-42    H    0.59304998    0.50875008    0.75735023    0.09730000
opls_601-43    H    0.64832003    0.57044007    0.89964055    0.12180000
opls_599-44    H    0.54318015    0.66920985    0.59026037    0.12290000
opls_146-45    H    0.58337001    0.29048014    0.00897926    0.12200000
opls_146-46    H    0.63907983    0.22626995    0.99229032    0.11820000
opls_146-47    H    0.75237001    0.31193005    0.34000922    0.12120000
opls_146-48    H    0.69650018    0.37548998    0.37023041    0.11890000
opls_144-49    H    0.71537001    0.19071002    0.18518894    0.10880000
opls_547-50    H    0.81814995    0.04142003    0.41621889    0.10280000
opls_547-51    H    0.95422006    0.17360000    0.47384101    0.12060000
opls_146-52    H    0.91679000    0.15186995    0.98387097    0.11650000
opls_146-53    H    0.86135994    0.21553990    0.91155991    0.12290000
opls_146-54    H    0.76787990    0.15991986    0.60258986    0.12070000
opls_146-55    H    0.82716001    0.10155993    0.71720968    0.11880000
opls_594-56    C    0.53732003    0.44591002    0.39720968    0.08570000
opls_593-57    C    0.58197015    0.45660985    0.27220968    -0.16400000
opls_592-58    C    0.61348004    0.42113990    0.19499078    -0.12860000
opls_700-59    C    0.60034987    0.37522003    0.24426037    0.06580000
opls_590-60    C    0.55434987    0.36528998    0.36308065    -0.15810000
opls_700-61    C    0.52392017    0.40117997    0.43450000    0.03310000
opls_700-62    C    0.63539986    0.66199015    0.80671889    0.06250000
opls_145-63    C    0.62017008    0.70440985    0.91826037    -0.11960000
opls_145-64    C    0.65201007    0.74102988    0.92962903    -0.11750000
opls_700-65    C    0.69981014    0.73575993    0.83502995    0.05320000
opls_145-66    C    0.71575009    0.69293005    0.73728111    -0.11770000
opls_145-67    C    0.68377994    0.65646010    0.72159908    -0.11760000
opls_142-68    C    0.73144013    0.77577012    0.81794931    0.07040000
opls_700-69    C    0.91334017    0.91551002    0.58264055    -0.13330000
opls_716-70    C    0.85035994    0.97773990    0.53917972    -0.19790000
opls_507-71    C    0.89779000    0.96391002    0.54693088    0.21620000
opls_507-72    C    0.96155987    0.90171002    0.53676959    0.18660000
opls_716-73    C    0.97588997    0.85677997    0.51899078    -0.19790000
opls_700-74    C    0.87618015    0.87964992    0.64976959    0.06960000
opls_145-75    C    0.88471988    0.84659015    0.87706912    -0.11660000
opls_145-76    C    0.85307012    0.81031002    0.91955991    -0.16800000
opls_145-77    C    0.80990004    0.80860000    0.75685023    0.19640000
opls_145-78    C    0.80013988    0.84197997    0.53588018    -0.16660000
opls_145-79    C    0.83374002    0.87604007    0.47537097    -0.11780000
opls_594-80    C    0.46267997    0.55408998    0.39720968    0.08570000
opls_593-81    C    0.41802985    0.54339015    0.27220968    -0.16400000
opls_592-82    C    0.38651996    0.57886010    0.19499078    -0.12860000
opls_700-83    C    0.39965013    0.62477997    0.24426037    0.06930000
opls_590-84    C    0.44565013    0.63471002    0.36308065    -0.15810000
opls_700-85    C    0.47607983    0.59882003    0.43450000    0.03310000
opls_700-86    C    0.36459008    0.33800985    0.80671889    0.06250000
opls_145-87    C    0.37982992    0.29559015    0.91826037    -0.11960000
opls_145-88    C    0.34798993    0.25897012    0.92962903    -0.11750000
opls_700-89    C    0.30018986    0.26424007    0.83502995    0.05320000
opls_145-90    C    0.28424991    0.30706995    0.73728111    -0.11770000
opls_145-91    C    0.31622006    0.34353990    0.72159908    -0.11750000
opls_142-92    C    0.26855987    0.22422988    0.81794931    0.07040000
opls_700-93    C    0.08665983    0.08448998    0.58264055    -0.13330000
opls_716-94    C    0.14964006    0.02226010    0.53917972    -0.19790000
opls_507-95    C    0.10221000    0.03608998    0.54693088    0.21620000
opls_507-96    C    0.03844013    0.09828998    0.53676959    0.18660000
opls_716-97    C    0.02411003    0.14322003    0.51899078    -0.19770000
opls_700-98    C    0.12381985    0.12035008    0.64976959    0.06960000
opls_145-99    C    0.11528012    0.15340985    0.87706912    -0.11660000
opls_145-100    C    0.14692988    0.18968998    0.91955991    -0.16800000
opls_145-101    C    0.19009996    0.19140000    0.75685023    0.19640000
opls_145-102    C    0.19986012    0.15802003    0.53588018    -0.16670000
opls_145-103    C    0.16625998    0.12395993    0.47537097    -0.11780000
opls_594-104    C    0.46267997    0.44591002    0.60279032    0.08570000
opls_593-105    C    0.41802985    0.45660985    0.72779032    -0.16390000
opls_592-106    C    0.38651996    0.42113990    0.80500922    -0.12860000
opls_700-107    C    0.39965013    0.37522003    0.75573963    0.06930000
opls_590-108    C    0.44565013    0.36528998    0.63691935    -0.15810000
opls_700-109    C    0.47607983    0.40117997    0.56550000    0.03310000
opls_700-110    C    0.36459008    0.66199015    0.19328111    0.06250000
opls_145-111    C    0.37982992    0.70440985    0.08173963    -0.11960000
opls_145-112    C    0.34798993    0.74102988    0.07037097    -0.11750000
opls_700-113    C    0.30018986    0.73575993    0.16497005    0.05320000
opls_145-114    C    0.28424991    0.69293005    0.26271889    -0.11770000
opls_145-115    C    0.31622006    0.65646010    0.27840092    -0.11740000
opls_142-116    C    0.26855987    0.77577012    0.18205069    0.07040000
opls_700-117    C    0.08665983    0.91551002    0.41735945    -0.13330000
opls_716-118    C    0.14964006    0.97773990    0.46082028    -0.19790000
opls_507-119    C    0.10221000    0.96391002    0.45306912    0.21610000
opls_507-120    C    0.03844013    0.90171002    0.46323041    0.18660000
opls_716-121    C    0.02411003    0.85677997    0.48100922    -0.19790000
opls_700-122    C    0.12381985    0.87964992    0.35023041    0.06960000
opls_145-123    C    0.11528012    0.84659015    0.12293088    -0.11660000
opls_145-124    C    0.14692988    0.81031002    0.08044009    -0.16810000
opls_145-125    C    0.19009996    0.80860000    0.24314977    0.19650000
opls_145-126    C    0.19986012    0.84197997    0.46411982    -0.16670000
opls_145-127    C    0.16625998    0.87604007    0.52462903    -0.11780000
opls_594-128    C    0.53732003    0.55408998    0.60279032    0.08570000
opls_593-129    C    0.58197015    0.54339015    0.72779032    -0.16400000
opls_592-130    C    0.61348004    0.57886010    0.80500922    -0.12860000
opls_700-131    C    0.60034987    0.62477997    0.75573963    0.06580000
opls_590-132    C    0.55434987    0.63471002    0.63691935    -0.15810000
opls_700-133    C    0.52392017    0.59882003    0.56550000    0.03310000
opls_700-134    C    0.63539986    0.33800985    0.19328111    0.06250000
opls_145-135    C    0.62017008    0.29559015    0.08173963    -0.11960000
opls_145-136    C    0.65201007    0.25897012    0.07037097    -0.11740000
opls_700-137    C    0.69981014    0.26424007    0.16497005    0.05320000
opls_145-138    C    0.71575009    0.30706995    0.26271889    -0.11770000
opls_145-139    C    0.68377994    0.34353990    0.27840092    -0.11750000
opls_142-140    C    0.73144013    0.22422988    0.18205069    0.07040000
opls_700-141    C    0.91334017    0.08448998    0.41735945    -0.13320000
opls_716-142    C    0.85035994    0.02226010    0.46082028    -0.19790000
opls_507-143    C    0.89779000    0.03608998    0.45306912    0.21610000
opls_507-144    C    0.96155987    0.09828998    0.46323041    0.18660000
opls_716-145    C    0.97588997    0.14322003    0.48100922    -0.19780000
opls_700-146    C    0.87618015    0.12035008    0.35023041    0.06960000
opls_145-147    C    0.88471988    0.15340985    0.12293088    -0.11660000
opls_145-148    C    0.85307012    0.18968998    0.08044009    -0.16810000
opls_145-149    C    0.80990004    0.19140000    0.24314977    0.19640000
opls_145-150    C    0.80013988    0.15802003    0.46411982    -0.16660000
opls_145-151    C    0.83374002    0.12395993    0.52462903    -0.11780000
opls_750-152    N    0.77777994    0.77126995    0.80397005    -0.34990000
opls_750-153    N    0.22222006    0.22873005    0.80397005    -0.35000000
opls_750-154    N    0.22222006    0.77126995    0.19602995    -0.34990000
opls_750-155    N    0.77777994    0.22873005    0.19602995    -0.35000000
opls_542-156    N    0.92728012    0.00000000    0.50000000    -0.29670000
opls_542-157    N    0.07271988    0.00000000    0.50000000    -0.29660000
opls_542-158    N    0.50000000    0.47599015    0.50000000    -0.01510000
opls_542-159    N    0.50000000    0.52400985    0.50000000    -0.01510000
opls_542-160    N    0.00000000    0.92966010    0.50000000    -0.29560000
opls_542-161    N    0.00000000    0.07033990    0.50000000    -0.29570000
