#======================================================================
# Crystal Data Generated By AuToFF
#----------------------------------------------------------------------

data_AuToFF_phase_1

_cell_length_a                         14.7403
_cell_length_b                         14.7403
_cell_length_c                         3.2754
_cell_angle_alpha                      90.00
_cell_angle_beta                       90.00
_cell_angle_gamma                      120.00
_symmetry_space_group_name_H-M_alt     'P 1'
_symmetry_space_group_IT_number        1

loop_
_space_group_symop_operation_xyz
   'x, y, z'

loop_
   _atom_site_label
   _atom_site_type_symbol
   _atom_site_fract_x
   _atom_site_fract_y
   _atom_site_fract_z
   _atom_site_charge
opls_523-0    C    0.11521050    0.39358049    0.50021066    -0.16320000
opls_145-1    C    0.22412022    0.28574036    0.49988093    -0.06660000
opls_523-2    C    0.60642006    0.72163030    0.50021066    -0.16320000
opls_145-3    C    0.71426064    0.93838065    0.49988093    -0.06660000
opls_523-4    C    0.27836984    0.88478998    0.50021066    -0.16320000
opls_145-5    C    0.06162060    0.77588056    0.49988093    -0.06660000
opls_523-6    C    0.60642015    0.88478998    0.50021066    -0.16320000
opls_145-7    C    0.71425996    0.77588056    0.49988093    -0.06660000
opls_523-8    C    0.27837000    0.39358049    0.50021066    -0.16320000
opls_145-9    C    0.06162009    0.28574976    0.49988093    -0.06660000
opls_523-10    C    0.11521025    0.72163030    0.50021066    -0.16320000
opls_145-11    C    0.22412001    0.93838065    0.49988093    -0.06660000
opls_700-12    C    0.22428037    0.44857024    0.50036942    0.01090000
opls_700-13    C    0.55144010    0.77571997    0.50036942    0.01090000
opls_700-14    C    0.22427987    0.77571997    0.50036942    0.01090000
opls_531-15    C    0.43608024    0.71804015    0.50065030    0.37650000
opls_531-16    C    0.28195991    0.71804015    0.50065030    0.37650000
opls_531-17    C    0.28196024    0.56392048    0.50065030    0.37650000
opls_145-18    C    0.11488038    0.88512056    0.49964890    -0.24200000
opls_145-19    C    0.11488022    0.22976044    0.49964890    -0.24650000
opls_145-20    C    0.77024018    0.88512056    0.49964890    -0.24200000
opls_526-21    H    0.07407009    0.43699997    0.50032057    0.12720000
opls_146-22    H    0.26672014    0.24353980    0.49960005    0.12300000
opls_526-23    H    0.56300975    0.63707016    0.50032057    0.12720000
opls_146-24    H    0.75646009    0.02317032    0.49960005    0.12290000
opls_526-25    H    0.36293000    0.92594006    0.50032057    0.12720000
opls_146-26    H    0.97682999    0.73328048    0.49960005    0.12290000
opls_526-27    H    0.56301005    0.92594006    0.50032057    0.12720000
opls_146-28    H    0.75645994    0.73328988    0.49960005    0.12290000
opls_526-29    H    0.36292988    0.43699997    0.50032057    0.12720000
opls_146-30    H    0.97682984    0.24353980    0.49960005    0.12290000
opls_526-31    H    0.07406991    0.63707016    0.50032057    0.12720000
opls_146-32    H    0.26672040    0.02317032    0.49960005    0.12290000
MOF2_B_2-33    B    0.05477986    0.10955022    0.49926116    0.75880000
MOF2_B_2-34    B    0.89044997    0.94523038    0.49926116    0.75890000
MOF2_B_2-35    B    0.05478041    0.94523038    0.49926116    0.75890000
opls_180-36    O    0.10718001    0.05358988    0.49917873    -0.55850000
opls_180-37    O    0.94640987    0.05358988    0.49917873    -0.55850000
opls_180-38    O    0.94641012    0.89282024    0.49917873    -0.55850000
opls_520-39    N    0.38666026    0.77332053    0.50068083    -0.38490000
opls_520-40    N    0.22668003    0.61334052    0.50068083    -0.38490000
opls_520-41    N    0.38666049    0.61334052    0.50068083    -0.38490000
