#======================================================================
# Crystal Data Generated By AuToFF
#----------------------------------------------------------------------

data_AuToFF_phase_1

_cell_length_a                         15.6529
_cell_length_b                         15.6529
_cell_length_c                         6.7005
_cell_angle_alpha                      90.00
_cell_angle_beta                       90.00
_cell_angle_gamma                      120.00
_symmetry_space_group_name_H-M_alt     'P 1'
_symmetry_space_group_IT_number        1

loop_
_space_group_symop_operation_xyz
   'x, y, z'

loop_
   _atom_site_label
   _atom_site_type_symbol
   _atom_site_fract_x
   _atom_site_fract_y
   _atom_site_fract_z
   _atom_site_charge
MOF2_B_2-0    B    0.05770999    0.11543021    0.24999925    0.71750000
MOF2_B_2-1    B    0.88456983    0.94228969    0.24999925    0.71750000
MOF2_B_2-2    B    0.05770963    0.94228969    0.24999925    0.71750000
MOF2_B_2-3    B    0.94229001    0.88456979    0.75000075    0.71750000
MOF2_B_2-4    B    0.11543017    0.05771031    0.75000075    0.71750000
MOF2_B_2-5    B    0.94229005    0.05771990    0.75000075    0.71750000
MOF2_B_2-6    B    0.44466014    0.72233013    0.24999925    0.72000000
MOF2_B_2-7    B    0.27766999    0.72233013    0.24999925    0.72000000
MOF2_B_2-8    B    0.27766987    0.55533974    0.24999925    0.72000000
MOF2_B_2-9    B    0.55533986    0.27766987    0.75000075    0.72000000
MOF2_B_2-10    B    0.72233001    0.27766987    0.75000075    0.72000000
MOF2_B_2-11    B    0.72233013    0.44466026    0.75000075    0.72000000
opls_180-12    O    0.38899999    0.77799999    0.24999925    -0.59800000
opls_180-13    O    0.22199982    0.61100001    0.24999925    -0.59800000
opls_180-14    O    0.38900019    0.61100001    0.24999925    -0.59800000
opls_180-15    O    0.61100001    0.22200001    0.75000075    -0.59800000
opls_180-16    O    0.77800018    0.38899999    0.75000075    -0.59800000
opls_180-17    O    0.61099981    0.38899999    0.75000075    -0.59800000
opls_180-18    O    0.11133032    0.05566027    0.24999925    -0.58790000
opls_180-19    O    0.94433986    0.05566986    0.24999925    -0.58780000
opls_180-20    O    0.94434005    0.88866988    0.24999925    -0.58790000
opls_180-21    O    0.88866968    0.94433973    0.75000075    -0.58780000
opls_180-22    O    0.05565983    0.94433973    0.75000075    -0.58780000
opls_180-23    O    0.05565995    0.11133012    0.75000075    -0.58780000
opls_145-24    C    0.21863983    0.43727966    0.24999925    -0.20190000
opls_145-25    C    0.56271977    0.78136017    0.24999925    -0.20190000
opls_145-26    C    0.21864040    0.78136017    0.24999925    -0.20200000
opls_145-27    C    0.78135980    0.56271960    0.75000075    -0.20190000
opls_145-28    C    0.43728023    0.21863983    0.75000075    -0.20190000
opls_145-29    C    0.78135960    0.21863983    0.75000075    -0.20190000
opls_145-30    C    0.11184011    0.38360968    0.24999925    -0.06800000
opls_145-31    C    0.21837008    0.27685030    0.24999925    -0.06820000
opls_145-32    C    0.61639039    0.72823018    0.24999925    -0.06800000
opls_145-33    C    0.72315043    0.94152028    0.24999925    -0.06820000
opls_145-34    C    0.27177014    0.88816013    0.24999925    -0.06800000
opls_145-35    C    0.05847986    0.78163016    0.24999925    -0.06820000
opls_145-36    C    0.88815989    0.61639032    0.75000075    -0.06800000
opls_145-37    C    0.78162992    0.72314970    0.75000075    -0.06820000
opls_145-38    C    0.38360961    0.27176982    0.75000075    -0.06800000
opls_145-39    C    0.27684957    0.05847972    0.75000075    -0.06820000
opls_145-40    C    0.72822986    0.11183987    0.75000075    -0.06800000
opls_145-41    C    0.94152014    0.21836984    0.75000075    -0.06820000
opls_145-42    C    0.38361001    0.11183987    0.75000075    -0.06800000
opls_145-43    C    0.27684970    0.21836984    0.75000075    -0.06820000
opls_145-44    C    0.72823042    0.61639032    0.75000075    -0.06800000
opls_145-45    C    0.94151978    0.72314970    0.75000075    -0.06820000
opls_145-46    C    0.88816021    0.27176982    0.75000075    -0.06800000
opls_145-47    C    0.78163015    0.05847972    0.75000075    -0.06820000
opls_145-48    C    0.61638999    0.88816013    0.24999925    -0.06800000
opls_145-49    C    0.72315030    0.78163016    0.24999925    -0.06820000
opls_145-50    C    0.27176958    0.38360968    0.24999925    -0.06800000
opls_145-51    C    0.05848022    0.27685030    0.24999925    -0.06820000
opls_145-52    C    0.11183979    0.72823018    0.24999925    -0.06800000
opls_145-53    C    0.21836985    0.94152028    0.24999925    -0.06820000
opls_145-54    C    0.11029970    0.88969969    0.24999925    -0.22730000
opls_145-55    C    0.11029994    0.22059988    0.24999925    -0.22920000
opls_145-56    C    0.77939999    0.88969969    0.24999925    -0.22920000
opls_145-57    C    0.88970030    0.11030031    0.75000075    -0.22920000
opls_145-58    C    0.88970006    0.77940012    0.75000075    -0.22920000
opls_145-59    C    0.22060001    0.11030031    0.75000075    -0.22920000
opls_146-60    H    0.07129045    0.42305034    0.24999925    0.11350000
opls_146-61    H    0.26004997    0.23846011    0.24999925    0.11110000
opls_146-62    H    0.57694989    0.64824013    0.24999925    0.11350000
opls_146-63    H    0.76153992    0.02159959    0.24999925    0.11330000
opls_146-64    H    0.35176003    0.92871027    0.24999925    0.11350000
opls_146-65    H    0.97840022    0.73994988    0.24999925    0.11330000
opls_146-66    H    0.92870955    0.57694966    0.75000075    0.11350000
opls_146-67    H    0.73995003    0.76153989    0.75000075    0.11110000
opls_146-68    H    0.42305011    0.35175987    0.75000075    0.11350000
opls_146-69    H    0.23845972    0.97839967    0.75000075    0.11240000
opls_146-70    H    0.64823997    0.07128973    0.75000075    0.11350000
opls_146-71    H    0.02159978    0.26005012    0.75000075    0.11330000
opls_146-72    H    0.42304975    0.07128973    0.75000075    0.11350000
opls_146-73    H    0.23845992    0.26005012    0.75000075    0.11110000
opls_146-74    H    0.64824011    0.57694966    0.75000075    0.11350000
opls_146-75    H    0.02160008    0.76153989    0.75000075    0.11240000
opls_146-76    H    0.92870976    0.35175987    0.75000075    0.11350000
opls_146-77    H    0.73994954    0.97839967    0.75000075    0.11240000
opls_146-78    H    0.57695025    0.92871027    0.24999925    0.11350000
opls_146-79    H    0.76154008    0.73994988    0.24999925    0.11110000
opls_146-80    H    0.35175989    0.42305034    0.24999925    0.11350000
opls_146-81    H    0.97839992    0.23846011    0.24999925    0.11240000
opls_146-82    H    0.07129024    0.64824013    0.24999925    0.11350000
opls_146-83    H    0.26005010    0.02159959    0.24999925    0.11330000
