#======================================================================
# Crystal Data Generated By AuToFF
#----------------------------------------------------------------------

data_AuToFF_phase_1

_cell_length_a                         30.4728
_cell_length_b                         30.4728
_cell_length_c                         3.5061
_cell_angle_alpha                      90.00
_cell_angle_beta                       90.00
_cell_angle_gamma                      120.00
_symmetry_space_group_name_H-M_alt     'P 1'
_symmetry_space_group_IT_number        1

loop_
_space_group_symop_operation_xyz
   'x, y, z'

loop_
   _atom_site_label
   _atom_site_type_symbol
   _atom_site_fract_x
   _atom_site_fract_y
   _atom_site_fract_z
   _atom_site_charge
opls_280-0    C    0.61160997    0.30972004    0.00000000    0.28650000
opls_145-1    C    0.63448007    0.27704013    0.00000000    -0.24870000
opls_142-2    C    0.62370013    0.39741995    0.00000000    0.08130000
opls_916-3    C    0.55240015    0.41776006    0.00000000    0.19240000
opls_145-4    C    0.58368986    0.47007983    0.00000000    -0.21230000
opls_145-5    C    0.56342989    0.50184993    0.00000000    -0.18220000
opls_700-6    C    0.51098990    0.48275990    0.00000000    0.06370000
opls_145-7    C    0.48007985    0.42994981    0.00000000    -0.18200000
opls_145-8    C    0.50050994    0.39838016    0.00000000    -0.21220000
opls_280-9    C    0.69028001    0.30188987    0.00000000    0.28660000
opls_145-10    C    0.72296010    0.35743999    0.00000000    -0.24880000
opls_142-11    C    0.60258011    0.22628004    0.00000000    0.08130000
opls_916-12    C    0.58223988    0.13464003    0.00000000    0.19240000
opls_145-13    C    0.52991999    0.11360989    0.00000000    -0.21230000
opls_145-14    C    0.49815008    0.06158001    0.00000000    -0.18220000
opls_700-15    C    0.51724016    0.02823015    0.00000000    0.06370000
opls_145-16    C    0.57005000    0.05012993    0.00000000    -0.18200000
opls_145-17    C    0.60161986    0.10212988    0.00000000    -0.21230000
opls_280-18    C    0.69811001    0.38839009    0.00000000    0.28650000
opls_145-19    C    0.64255983    0.36551988    0.00000000    -0.24880000
opls_142-20    C    0.77372009    0.37630001    0.00000000    0.08130000
opls_916-21    C    0.86535997    0.44759991    0.00000000    0.19240000
opls_145-22    C    0.88638997    0.41630991    0.00000000    -0.21230000
opls_145-23    C    0.93842004    0.43657006    0.00000000    -0.18220000
opls_700-24    C    0.97176994    0.48900994    0.00000000    0.06370000
opls_145-25    C    0.94986996    0.51991988    0.00000000    -0.18200000
opls_145-26    C    0.89786987    0.49948996    0.00000000    -0.21230000
opls_280-27    C    0.38839003    0.69027996    0.00000000    0.28650000
opls_145-28    C    0.36551993    0.72295987    0.00000000    -0.24880000
opls_142-29    C    0.37629987    0.60258005    0.00000000    0.08130000
opls_916-30    C    0.44759985    0.58223994    0.00000000    0.19240000
opls_145-31    C    0.41630995    0.52991980    0.00000000    -0.21230000
opls_145-32    C    0.43657011    0.49815007    0.00000000    -0.18220000
opls_700-33    C    0.48901010    0.51724010    0.00000000    0.06370000
opls_145-34    C    0.51991996    0.57004981    0.00000000    -0.18200000
opls_145-35    C    0.49949006    0.60161984    0.00000000    -0.21230000
opls_280-36    C    0.30971999    0.69811013    0.00000000    0.28650000
opls_145-37    C    0.27703990    0.64256001    0.00000000    -0.24880000
opls_142-38    C    0.39741989    0.77371996    0.00000000    0.08130000
opls_916-39    C    0.41776012    0.86535997    0.00000000    0.19240000
opls_145-40    C    0.47008001    0.88639011    0.00000000    -0.21230000
opls_145-41    C    0.50184992    0.93841999    0.00000000    -0.18220000
opls_700-42    C    0.48275984    0.97176985    0.00000000    0.06370000
opls_145-43    C    0.42995000    0.94987007    0.00000000    -0.18190000
opls_145-44    C    0.39838014    0.89787012    0.00000000    -0.21230000
opls_280-45    C    0.30188999    0.61160991    0.00000000    0.28650000
opls_145-46    C    0.35744017    0.63448012    0.00000000    -0.24870000
opls_142-47    C    0.22627991    0.62369999    0.00000000    0.08130000
opls_916-48    C    0.13464003    0.55240009    0.00000000    0.19250000
opls_145-49    C    0.11361003    0.58369009    0.00000000    -0.21230000
opls_145-50    C    0.06157996    0.56342994    0.00000000    -0.18220000
opls_700-51    C    0.02823006    0.51099006    0.00000000    0.06370000
opls_145-52    C    0.05013004    0.48008012    0.00000000    -0.18200000
opls_145-53    C    0.10213013    0.50051004    0.00000000    -0.21230000
opls_238-54    N    0.57123983    0.38319991    0.00000000    -0.30970000
opls_238-55    N    0.61680004    0.18804011    0.00000000    -0.30970000
opls_238-56    N    0.81196012    0.42875997    0.00000000    -0.30970000
opls_238-57    N    0.42876017    0.61680009    0.00000000    -0.30960000
opls_238-58    N    0.38319996    0.81195989    0.00000000    -0.30950000
opls_238-59    N    0.18803988    0.57124003    0.00000000    -0.30960000
opls_281-60    O    0.56610007    0.28940001    0.00000000    -0.37710000
opls_281-61    O    0.71059993    0.27669985    0.00000000    -0.37700000
opls_281-62    O    0.72329999    0.43390013    0.00000000    -0.37710000
opls_281-63    O    0.43389993    0.71059999    0.00000000    -0.37710000
opls_281-64    O    0.28940007    0.72330015    0.00000000    -0.37700000
opls_281-65    O    0.27670001    0.56609987    0.00000000    -0.37710000
opls_144-66    H    0.65066988    0.43698006    0.00000000    0.09730000
opls_146-67    H    0.62391988    0.48754008    0.00000000    0.08150000
opls_146-68    H    0.59011997    0.54135017    0.00000000    0.22840000
opls_146-69    H    0.43982980    0.41161991    0.00000000    0.22840000
opls_146-70    H    0.47542991    0.35821983    0.00000000    0.22740000
opls_910-71    H    0.54361988    0.34560000    0.00000000    0.23730000
opls_144-72    H    0.56302009    0.21369015    0.00000000    0.09730000
opls_146-73    H    0.51246001    0.13638007    0.00000000    0.08150000
opls_146-74    H    0.45864996    0.04876996    0.00000000    0.22840000
opls_146-75    H    0.58838013    0.02821007    0.00000000    0.22840000
opls_146-76    H    0.64178020    0.11721009    0.00000000    0.22730000
opls_910-77    H    0.65440003    0.19801995    0.00000000    0.23730000
opls_144-78    H    0.78631022    0.34933017    0.00000000    0.09740000
opls_146-79    H    0.86361979    0.37607985    0.00000000    0.08150000
opls_146-80    H    0.95123007    0.40987987    0.00000000    0.22840000
opls_146-81    H    0.97179007    0.56017002    0.00000000    0.22840000
opls_146-82    H    0.88278989    0.52457009    0.00000000    0.22730000
opls_910-83    H    0.80198009    0.45638005    0.00000000    0.23740000
opls_144-84    H    0.34933012    0.56301994    0.00000000    0.09730000
opls_146-85    H    0.37608012    0.51245992    0.00000000    0.08150000
opls_146-86    H    0.40988003    0.45864983    0.00000000    0.22840000
opls_146-87    H    0.56017020    0.58838009    0.00000000    0.22840000
opls_146-88    H    0.52456990    0.64177980    0.00000000    0.22730000
opls_910-89    H    0.45638012    0.65440000    0.00000000    0.23740000
opls_144-90    H    0.43697991    0.78630985    0.00000000    0.09730000
opls_146-91    H    0.48753999    0.86361993    0.00000000    0.08150000
opls_146-92    H    0.54135004    0.95123004    0.00000000    0.22840000
opls_146-93    H    0.41161987    0.97178993    0.00000000    0.22840000
opls_146-94    H    0.35821980    0.88278991    0.00000000    0.22740000
opls_910-95    H    0.34559997    0.80198005    0.00000000    0.23730000
opls_144-96    H    0.21368978    0.65066983    0.00000000    0.09730000
opls_146-97    H    0.13638021    0.62392015    0.00000000    0.08150000
opls_146-98    H    0.04876993    0.59012013    0.00000000    0.22850000
opls_146-99    H    0.02820993    0.43982998    0.00000000    0.22840000
opls_146-100    H    0.11721011    0.47542991    0.00000000    0.22730000
opls_910-101    H    0.19801991    0.54361995    0.00000000    0.23730000
