#======================================================================
# Crystal Data Generated By AuToFF
#----------------------------------------------------------------------

data_AuToFF_phase_1

_cell_length_a                         37.5242
_cell_length_b                         37.5242
_cell_length_c                         6.2458
_cell_angle_alpha                      90.00
_cell_angle_beta                       90.00
_cell_angle_gamma                      120.00
_symmetry_space_group_name_H-M_alt     'P 1'
_symmetry_space_group_IT_number        1

loop_
_space_group_symop_operation_xyz
   'x, y, z'

loop_
   _atom_site_label
   _atom_site_type_symbol
   _atom_site_fract_x
   _atom_site_fract_y
   _atom_site_fract_z
   _atom_site_charge
opls_700-0    C    0.48102993    0.48099004    0.50760031    0.01540000
opls_700-1    C    0.51900988    0.00004000    0.50760031    0.01540000
opls_700-2    C    0.99995993    0.51896996    0.50760031    0.01510000
opls_700-3    C    0.51897007    0.51900996    0.50760031    0.01510000
opls_700-4    C    0.48099012    0.99996000    0.50760031    0.01470000
opls_700-5    C    0.00004007    0.48103004    0.50760031    0.01540000
opls_700-6    C    0.44280015    0.47974007    0.51029972    0.07910000
opls_700-7    C    0.52025988    0.96305987    0.51029972    0.08310000
opls_700-8    C    0.03693012    0.55720005    0.51029972    0.07910000
opls_700-9    C    0.55719985    0.52025993    0.51029972    0.07910000
opls_700-10    C    0.47974011    0.03692997    0.51029972    0.08310000
opls_700-11    C    0.96306002    0.44279995    0.51029972    0.07910000
opls_145-12    C    0.41794000    0.46787002    0.32482949    -0.21390000
opls_145-13    C    0.53213003    0.95007987    0.32482949    -0.21390000
opls_145-14    C    0.04991997    0.58205996    0.32482949    -0.21390000
opls_145-15    C    0.58206000    0.53212998    0.32482949    -0.21390000
opls_145-16    C    0.46786997    0.04992013    0.32482949    -0.21390000
opls_145-17    C    0.95008003    0.41794004    0.32482949    -0.21390000
opls_145-18    C    0.38038004    0.46771985    0.32355023    -0.08070000
opls_145-19    C    0.53227992    0.91266000    0.32355023    -0.08070000
opls_145-20    C    0.08734004    0.61962014    0.32355023    -0.08070000
opls_145-21    C    0.61961996    0.53228015    0.32355023    -0.08070000
opls_145-22    C    0.46772008    0.08734000    0.32355023    -0.08070000
opls_145-23    C    0.91265996    0.38037986    0.32355023    -0.08070000
opls_145-24    C    0.36648009    0.47835010    0.50996029    -0.28180000
opls_145-25    C    0.52165012    0.88812998    0.50996029    -0.28180000
opls_145-26    C    0.11187005    0.63351993    0.50996029    -0.28180000
opls_145-27    C    0.63351991    0.52164990    0.50996029    -0.28180000
opls_145-28    C    0.47834988    0.11187002    0.50996029    -0.28180000
opls_145-29    C    0.88812995    0.36648007    0.50996029    -0.28180000
opls_145-30    C    0.39092998    0.48952008    0.69690032    -0.08060000
opls_145-31    C    0.51048003    0.90141001    0.69690032    -0.08060000
opls_145-32    C    0.09858999    0.60906991    0.69690032    -0.08060000
opls_145-33    C    0.60907002    0.51047992    0.69690032    -0.08060000
opls_145-34    C    0.48951997    0.09858999    0.69690032    -0.08060000
opls_145-35    C    0.90141001    0.39093009    0.69690032    -0.08060000
opls_145-36    C    0.42902007    0.49067988    0.69608057    -0.21390000
opls_145-37    C    0.50932008    0.93833998    0.69608057    -0.21390000
opls_145-38    C    0.06166011    0.57098013    0.69608057    -0.21430000
opls_145-39    C    0.57097993    0.50932012    0.69608057    -0.21390000
opls_145-40    C    0.49067992    0.06166002    0.69608057    -0.21430000
opls_145-41    C    0.93833989    0.42901987    0.69608057    -0.21390000
opls_700-42    C    0.47947988    0.44257993    0.50374011    0.08150000
opls_700-43    C    0.55742011    0.03690012    0.50374011    0.08400000
opls_700-44    C    0.96310001    0.52051995    0.50374011    0.08400000
opls_700-45    C    0.52052998    0.55742007    0.50374011    0.08400000
opls_700-46    C    0.44257989    0.96309988    0.50374011    0.08400000
opls_700-47    C    0.03689999    0.47948005    0.50374011    0.08400000
opls_145-48    C    0.46299004    0.41522009    0.67893945    -0.19030000
opls_145-49    C    0.58478014    0.04777008    0.67893945    -0.19030000
opls_145-50    C    0.95222997    0.53701013    0.67893945    -0.19030000
opls_145-51    C    0.53700996    0.58477991    0.67893945    -0.19030000
opls_145-52    C    0.41521986    0.95222992    0.67893945    -0.19030000
opls_145-53    C    0.04777003    0.46298987    0.67893945    -0.19030000
opls_145-54    C    0.46213998    0.37731987    0.67763937    -0.08060000
opls_145-55    C    0.62268010    0.08482006    0.67763937    -0.08060000
opls_145-56    C    0.91517992    0.53786006    0.67763937    -0.08060000
opls_145-57    C    0.53786002    0.62268013    0.67763937    -0.08060000
opls_145-58    C    0.37731990    0.91517994    0.67763937    -0.08060000
opls_145-59    C    0.08482008    0.46213994    0.67763937    -0.08060000
opls_145-60    C    0.47758983    0.36582986    0.50037945    -0.28240000
opls_145-61    C    0.63416994    0.11175986    0.50037945    -0.28240000
opls_145-62    C    0.88824008    0.52240998    0.50037945    -0.28240000
opls_145-63    C    0.52241017    0.63417014    0.50037945    -0.28240000
opls_145-64    C    0.36583006    0.88824014    0.50037945    -0.28240000
opls_145-65    C    0.11175992    0.47759002    0.50037945    -0.28240000
opls_145-66    C    0.49360017    0.39290012    0.32379039    -0.08060000
opls_145-67    C    0.60710006    0.10070004    0.32379039    -0.08060000
opls_145-68    C    0.89929991    0.50638999    0.32379039    -0.08060000
opls_145-69    C    0.50639983    0.60709988    0.32379039    -0.08060000
opls_145-70    C    0.39289994    0.89929996    0.32379039    -0.08060000
opls_145-71    C    0.10069996    0.49360016    0.32379039    -0.08060000
opls_145-72    C    0.49451005    0.43084004    0.32555958    -0.19030000
opls_145-73    C    0.56916999    0.06367990    0.32555958    -0.19030000
opls_145-74    C    0.93632009    0.50548991    0.32555958    -0.19030000
opls_145-75    C    0.50548997    0.56917011    0.32555958    -0.19030000
opls_145-76    C    0.43083001    0.93632010    0.32555958    -0.19030000
opls_145-77    C    0.06367991    0.49451009    0.32555958    -0.19030000
opls_166-78    C    0.26703997    0.46988991    0.61109065    0.14920000
opls_166-79    C    0.53011009    0.79714994    0.61109065    0.14920000
opls_166-80    C    0.20285020    0.73296015    0.61109065    0.14920000
opls_166-81    C    0.73296003    0.53011009    0.61109065    0.14920000
opls_166-82    C    0.46988991    0.20285006    0.61109065    0.14920000
opls_166-83    C    0.79714980    0.26703985    0.61109065    0.14920000
opls_166-84    C    0.48513989    0.27419992    0.39796984    0.15080000
opls_166-85    C    0.72580011    0.21094006    0.39796984    0.15080000
opls_166-86    C    0.78906000    0.51486003    0.39796984    0.15080000
opls_166-87    C    0.51486011    0.72580008    0.39796984    0.15080000
opls_166-88    C    0.27419989    0.78905994    0.39796984    0.15080000
opls_166-89    C    0.21094000    0.48513997    0.39796984    0.15100000
opls_145-90    C    0.49340984    0.24622987    0.29016939    -0.35590000
opls_145-91    C    0.75377005    0.24718012    0.29016939    -0.35590000
opls_145-92    C    0.75282011    0.50659001    0.29016939    -0.35590000
opls_145-93    C    0.50659016    0.75377013    0.29016939    -0.35590000
opls_145-94    C    0.24622995    0.75281988    0.29016939    -0.35590000
opls_145-95    C    0.24717989    0.49340999    0.29016939    -0.35590000
opls_166-96    C    0.46910994    0.26640010    0.60675014    0.15100000
opls_166-97    C    0.73360008    0.20271004    0.60675014    0.15100000
opls_166-98    C    0.79728998    0.53088986    0.60675014    0.15080000
opls_166-99    C    0.53089006    0.73359990    0.60675014    0.15100000
opls_166-100    C    0.26639992    0.79728996    0.60675014    0.15100000
opls_166-101    C    0.20271002    0.46911014    0.60675014    0.15080000
opls_166-102    C    0.48494006    0.21015013    0.40024016    0.14950000
opls_166-103    C    0.78985001    0.27479013    0.40024016    0.15000000
opls_166-104    C    0.72521008    0.51506005    0.40024016    0.15000000
opls_166-105    C    0.51505994    0.78984987    0.40024016    0.15000000
opls_166-106    C    0.21014999    0.72520987    0.40024016    0.15000000
opls_166-107    C    0.27478992    0.48493995    0.40024016    0.15000000
opls_145-108    C    0.23050007    0.46100014    0.71761023    -0.35590000
opls_145-109    C    0.53900002    0.76949993    0.71761023    -0.35590000
opls_145-110    C    0.23049991    0.76949993    0.71761023    -0.35590000
opls_145-111    C    0.76949993    0.53899986    0.71761023    -0.35590000
opls_145-112    C    0.46099998    0.23050007    0.71761023    -0.35590000
opls_145-113    C    0.76950009    0.23050007    0.71761023    -0.35590000
MOF2_B_2-114    B    0.32660005    0.47789990    0.50866983    0.50550000
MOF2_B_2-115    B    0.52210002    0.84870008    0.50866983    0.50550000
MOF2_B_2-116    B    0.15129992    0.67340002    0.50866983    0.50550000
MOF2_B_2-117    B    0.67339995    0.52210010    0.50866983    0.50550000
MOF2_B_2-118    B    0.47789998    0.15129992    0.50866983    0.50550000
MOF2_B_2-119    B    0.84870009    0.32661013    0.50866983    0.50550000
MOF2_B_2-120    B    0.47719997    0.32591006    0.50055077    0.50500000
MOF2_B_2-121    B    0.67409004    0.15129008    0.50055077    0.50500000
MOF2_B_2-122    B    0.84870999    0.52279986    0.50055077    0.50500000
MOF2_B_2-123    B    0.52280003    0.67408994    0.50055077    0.50500000
MOF2_B_2-124    B    0.32590996    0.84870992    0.50055077    0.50500000
MOF2_B_2-125    B    0.15129001    0.47720014    0.50055077    0.50500000
opls_167-126    O    0.29843008    0.46573997    0.68644049    -0.38480000
opls_167-127    O    0.53426007    0.83268994    0.68644049    -0.38480000
opls_167-128    O    0.16731011    0.70157009    0.68644049    -0.38490000
opls_167-129    O    0.70156992    0.53426003    0.68644049    -0.38480000
opls_167-130    O    0.46573993    0.16731006    0.68644049    -0.38480000
opls_167-131    O    0.83268989    0.29842991    0.68644049    -0.38510000
opls_167-132    O    0.31076002    0.48964994    0.32848954    -0.38660000
opls_167-133    O    0.51035010    0.82111007    0.32848954    -0.38660000
opls_167-134    O    0.17888988    0.68923999    0.32848954    -0.38660000
opls_167-135    O    0.68923984    0.51035991    0.32848954    -0.38660000
opls_167-136    O    0.48964004    0.17888993    0.32848954    -0.38580000
opls_167-137    O    0.82111012    0.31076001    0.32848954    -0.38660000
opls_167-138    O    0.49069004    0.31045998    0.32574050    -0.38480000
opls_167-139    O    0.68954006    0.18023991    0.32574050    -0.38510000
opls_167-140    O    0.81976004    0.50930011    0.32574050    -0.38510000
opls_167-141    O    0.50930996    0.68954002    0.32574050    -0.38480000
opls_167-142    O    0.31045994    0.81976009    0.32574050    -0.38510000
opls_167-143    O    0.18024010    0.49069004    0.32574050    -0.38480000
opls_167-144    O    0.46350996    0.29721995    0.67648019    -0.38660000
opls_167-145    O    0.70278004    0.16628996    0.67648019    -0.38660000
opls_167-146    O    0.83370998    0.53647993    0.67648019    -0.38660000
opls_167-147    O    0.53647991    0.70278005    0.67648019    -0.38580000
opls_167-148    O    0.29721996    0.83371004    0.67648019    -0.38660000
opls_167-149    O    0.16629002    0.46352007    0.67648019    -0.38660000
opls_146-150    H    0.42715006    0.45943014    0.18913990    0.21590000
opls_146-151    H    0.36300007    0.45931998    0.18668065    0.21590000
opls_146-152    H    0.38141007    0.49747991    0.83343047    0.21590000
opls_146-153    H    0.44668994    0.49962012    0.83157962    0.21590000
opls_146-154    H    0.45162014    0.42281005    0.80932947    0.21590000
opls_146-155    H    0.45015008    0.35813005    0.80736015    0.21590000
opls_146-156    H    0.50489982    0.38526986    0.19288002    0.21590000
opls_146-157    H    0.50630003    0.44990985    0.19588043    0.21590000
opls_146-158    H    0.50524989    0.25195996    0.13925038    0.21600000
opls_146-159    H    0.22435011    0.44911008    0.86842038    0.21600000
opls_146-160    H    0.54057007    0.96772001    0.18913990    0.21590000
opls_146-161    H    0.54068002    0.90366992    0.18668065    0.21590000
opls_146-162    H    0.50252986    0.88392989    0.83343047    0.21590000
opls_146-163    H    0.50038010    0.94707004    0.83157962    0.21590000
opls_146-164    H    0.57719014    0.02881012    0.80932947    0.21590000
opls_146-165    H    0.64187006    0.09200998    0.80736015    0.21590000
opls_146-166    H    0.61472989    0.11963999    0.19288002    0.21590000
opls_146-167    H    0.55008993    0.05638998    0.19588043    0.21590000
opls_146-168    H    0.74804010    0.25328008    0.13925038    0.21600000
opls_146-169    H    0.55089003    0.77523986    0.86842038    0.21600000
opls_146-170    H    0.03228002    0.57285016    0.18913990    0.21590000
opls_146-171    H    0.09631989    0.63699995    0.18668065    0.21590000
opls_146-172    H    0.11607004    0.61858989    0.83343047    0.21590000
opls_146-173    H    0.05293012    0.55331015    0.83157962    0.21590000
opls_146-174    H    0.97119014    0.54838014    0.80932947    0.21590000
opls_146-175    H    0.90799012    0.54985012    0.80736015    0.21590000
opls_146-176    H    0.88036002    0.49510000    0.19288002    0.21590000
opls_146-177    H    0.94360989    0.49369986    0.19588043    0.21590000
opls_146-178    H    0.74672001    0.49475012    0.13925038    0.21600000
opls_146-179    H    0.22476012    0.77565005    0.86842038    0.21600000
opls_146-180    H    0.57284994    0.54056986    0.18913990    0.21590000
opls_146-181    H    0.63699993    0.54068002    0.18668065    0.21590000
opls_146-182    H    0.61858993    0.50252009    0.83343047    0.21590000
opls_146-183    H    0.55331006    0.50037988    0.83157962    0.21590000
opls_146-184    H    0.54837986    0.57718995    0.80932947    0.21590000
opls_146-185    H    0.54984992    0.64186995    0.80736015    0.21590000
opls_146-186    H    0.49510018    0.61473014    0.19288002    0.21590000
opls_146-187    H    0.49369997    0.55009015    0.19588043    0.21590000
opls_146-188    H    0.49475011    0.74804004    0.13925038    0.21600000
opls_146-189    H    0.77564989    0.55088992    0.86842038    0.21600000
opls_146-190    H    0.45942993    0.03227999    0.18913990    0.21590000
opls_146-191    H    0.45931998    0.09633008    0.18668065    0.21590000
opls_146-192    H    0.49747014    0.11607011    0.83343047    0.21590000
opls_146-193    H    0.49961990    0.05292996    0.83157962    0.21590000
opls_146-194    H    0.42280986    0.97118988    0.80932947    0.21590000
opls_146-195    H    0.35812994    0.90799002    0.80736015    0.21590000
opls_146-196    H    0.38527011    0.88036001    0.19288002    0.21590000
opls_146-197    H    0.44991007    0.94361002    0.19588043    0.21590000
opls_146-198    H    0.25195990    0.74671992    0.13925038    0.21600000
opls_146-199    H    0.44910997    0.22476014    0.86842038    0.21600000
opls_146-200    H    0.96772013    0.42715015    0.18913990    0.21590000
opls_146-201    H    0.90366999    0.36300005    0.18668065    0.21590000
opls_146-202    H    0.88392995    0.38139995    0.83343047    0.21590000
opls_146-203    H    0.94706988    0.44668985    0.83157962    0.21590000
opls_146-204    H    0.02880986    0.45161986    0.80932947    0.21590000
opls_146-205    H    0.09200988    0.45014988    0.80736015    0.21590000
opls_146-206    H    0.11963998    0.50490000    0.19288002    0.21590000
opls_146-207    H    0.05639011    0.50630014    0.19588043    0.21590000
opls_146-208    H    0.25327999    0.50524988    0.13925038    0.21600000
opls_146-209    H    0.77523988    0.22434995    0.86842038    0.21600000
