#======================================================================
# Crystal Data Generated By AuToFF
#----------------------------------------------------------------------

data_AuToFF_phase_1

_cell_length_a                         33.3824
_cell_length_b                         35.3684
_cell_length_c                         4.0396
_cell_angle_alpha                      90.00
_cell_angle_beta                       80.35
_cell_angle_gamma                      90.00
_symmetry_space_group_name_H-M_alt     'P 1'
_symmetry_space_group_IT_number        1

loop_
_space_group_symop_operation_xyz
   'x, y, z'

loop_
   _atom_site_label
   _atom_site_type_symbol
   _atom_site_fract_x
   _atom_site_fract_y
   _atom_site_fract_z
   _atom_site_charge
opls_145-0    C    0.98003997    0.93137999    0.46784886    -0.07290000
opls_700-1    C    0.95912998    0.96522008    0.42825002    0.00260000
opls_700-2    C    0.91816001    0.96539001    0.36330993    0.03880000
opls_145-3    C    0.89285013    0.93064996    0.35867960    0.09670000
opls_145-4    C    0.90449999    0.89989991    0.15071916    -0.10390000
opls_145-5    C    0.88056994    0.86740989    0.15600988    -0.13950000
opls_145-6    C    0.84393997    0.86541008    0.35979952    0.27510000
opls_145-7    C    0.83136005    0.89668009    0.56049055    -0.10520000
opls_145-8    C    0.85566001    0.92890999    0.55955896    -0.10160000
opls_142-9    C    0.78582010    0.82415998    0.51560099    0.10020000
opls_700-10    C    0.76722013    0.78640001    0.50079097    0.02080000
opls_145-11    C    0.71112002    0.74389992    0.65688121    -0.17640000
opls_166-12    C    0.72775012    0.78015997    0.65320005    0.28350000
opls_182-13    C    0.68117013    0.82964002    0.58211046    -0.00760000
opls_927-14    C    0.64689007    0.80668987    0.50051978    -0.03720000
opls_925-15    C    0.61887992    0.78783010    0.43210946    -0.12090000
opls_145-16    C    0.48003997    0.43137999    0.46784886    -0.07290000
opls_700-17    C    0.45912998    0.46522008    0.42825002    0.00260000
opls_700-18    C    0.41816001    0.46539001    0.36330993    0.03880000
opls_145-19    C    0.39285013    0.43064996    0.35867960    0.09670000
opls_145-20    C    0.40449999    0.39989991    0.15071916    -0.10390000
opls_145-21    C    0.38056994    0.36740989    0.15600988    -0.13950000
opls_145-22    C    0.34393997    0.36541008    0.35979952    0.27510000
opls_145-23    C    0.33136005    0.39668009    0.56049055    -0.10520000
opls_145-24    C    0.35566001    0.42890999    0.55955896    -0.10160000
opls_142-25    C    0.28582010    0.32415998    0.51560099    0.10020000
opls_700-26    C    0.26722013    0.28640001    0.50079097    0.02080000
opls_145-27    C    0.21112002    0.24389992    0.65688121    -0.17640000
opls_166-28    C    0.22775012    0.28015997    0.65320005    0.28350000
opls_182-29    C    0.18117013    0.32964002    0.58211046    -0.00760000
opls_927-30    C    0.14689007    0.30668987    0.50051978    -0.03720000
opls_925-31    C    0.11887992    0.28783010    0.43210946    -0.12090000
opls_145-32    C    0.01996003    0.93137999    0.53215114    -0.07290000
opls_700-33    C    0.04087002    0.96522008    0.57174998    0.00260000
opls_700-34    C    0.08183999    0.96539001    0.63669007    0.03880000
opls_145-35    C    0.10715017    0.93064996    0.64132040    0.09670000
opls_145-36    C    0.09550001    0.89989991    0.84928084    -0.10390000
opls_145-37    C    0.11943006    0.86740989    0.84399012    -0.13950000
opls_145-38    C    0.15606003    0.86541008    0.64020048    0.27510000
opls_145-39    C    0.16863995    0.89668009    0.43950945    -0.10520000
opls_145-40    C    0.14433999    0.92890999    0.44044104    -0.10160000
opls_142-41    C    0.21418020    0.82415998    0.48439901    0.10020000
opls_700-42    C    0.23278017    0.78640001    0.49920903    0.02080000
opls_145-43    C    0.28887998    0.74389992    0.34311879    -0.17640000
opls_166-44    C    0.27225018    0.78015997    0.34679995    0.28350000
opls_182-45    C    0.31883017    0.82964002    0.41788954    -0.00760000
opls_927-46    C    0.35310993    0.80668987    0.49948022    -0.03720000
opls_925-47    C    0.38112008    0.78783010    0.56789054    -0.12090000
opls_145-48    C    0.51996003    0.43137999    0.53215114    -0.07290000
opls_700-49    C    0.54087002    0.46522008    0.57174998    0.00260000
opls_700-50    C    0.58183999    0.46539001    0.63669007    0.03880000
opls_145-51    C    0.60715017    0.43064996    0.64132040    0.09670000
opls_145-52    C    0.59550001    0.39989991    0.84928084    -0.10390000
opls_145-53    C    0.61943006    0.36740989    0.84399012    -0.13950000
opls_145-54    C    0.65606003    0.36541008    0.64020048    0.27510000
opls_145-55    C    0.66863995    0.39668009    0.43950945    -0.10520000
opls_145-56    C    0.64433999    0.42890999    0.44044104    -0.10160000
opls_142-57    C    0.71418020    0.32415998    0.48439901    0.10020000
opls_700-58    C    0.73278017    0.28640001    0.49920903    0.02080000
opls_145-59    C    0.78887998    0.24389992    0.34311879    -0.17640000
opls_166-60    C    0.77225018    0.28015997    0.34679995    0.28350000
opls_182-61    C    0.81883017    0.32964002    0.41788954    -0.00760000
opls_927-62    C    0.85310993    0.30668987    0.49948022    -0.03720000
opls_925-63    C    0.88112008    0.28783010    0.56789054    -0.12090000
opls_145-64    C    0.01996003    0.06862001    0.53215114    -0.07290000
opls_700-65    C    0.04087002    0.03477992    0.57174998    0.00260000
opls_700-66    C    0.08183999    0.03460999    0.63669007    0.03880000
opls_145-67    C    0.10715017    0.06935004    0.64132040    0.09670000
opls_145-68    C    0.09550001    0.10010009    0.84928084    -0.10390000
opls_145-69    C    0.11943006    0.13259011    0.84399012    -0.13950000
opls_145-70    C    0.15606003    0.13458992    0.64020048    0.27510000
opls_145-71    C    0.16863995    0.10331991    0.43950945    -0.10520000
opls_145-72    C    0.14433999    0.07109001    0.44044104    -0.10160000
opls_142-73    C    0.21418020    0.17584002    0.48439901    0.10020000
opls_700-74    C    0.23278017    0.21359999    0.49920903    0.02080000
opls_145-75    C    0.28887998    0.25610008    0.34311879    -0.17640000
opls_166-76    C    0.27225018    0.21984003    0.34679995    0.28350000
opls_182-77    C    0.31883017    0.17035998    0.41788954    -0.00760000
opls_927-78    C    0.35310993    0.19331013    0.49948022    -0.03720000
opls_925-79    C    0.38112008    0.21216990    0.56789054    -0.12090000
opls_145-80    C    0.51996003    0.56862001    0.53215114    -0.07290000
opls_700-81    C    0.54087002    0.53477992    0.57174998    0.00260000
opls_700-82    C    0.58183999    0.53460999    0.63669007    0.03880000
opls_145-83    C    0.60715017    0.56935004    0.64132040    0.09670000
opls_145-84    C    0.59550001    0.60010009    0.84928084    -0.10390000
opls_145-85    C    0.61943006    0.63259011    0.84399012    -0.13950000
opls_145-86    C    0.65606003    0.63458992    0.64020048    0.27510000
opls_145-87    C    0.66863995    0.60331991    0.43950945    -0.10520000
opls_145-88    C    0.64433999    0.57109001    0.44044104    -0.10160000
opls_142-89    C    0.71418020    0.67584002    0.48439901    0.10020000
opls_700-90    C    0.73278017    0.71359999    0.49920903    0.02080000
opls_145-91    C    0.78887998    0.75610008    0.34311879    -0.17640000
opls_166-92    C    0.77225018    0.71984003    0.34679995    0.28350000
opls_182-93    C    0.81883017    0.67035998    0.41788954    -0.00760000
opls_927-94    C    0.85310993    0.69331013    0.49948022    -0.03720000
opls_925-95    C    0.88112008    0.71216990    0.56789054    -0.12090000
opls_145-96    C    0.98003997    0.06862001    0.46784886    -0.07290000
opls_700-97    C    0.95912998    0.03477992    0.42825002    0.00260000
opls_700-98    C    0.91816001    0.03460999    0.36330993    0.03880000
opls_145-99    C    0.89285013    0.06935004    0.35867960    0.09670000
opls_145-100    C    0.90449999    0.10010009    0.15071916    -0.10390000
opls_145-101    C    0.88056994    0.13259011    0.15600988    -0.13950000
opls_145-102    C    0.84393997    0.13458992    0.35979952    0.27510000
opls_145-103    C    0.83136005    0.10331991    0.56049055    -0.10520000
opls_145-104    C    0.85566001    0.07109001    0.55955896    -0.10160000
opls_142-105    C    0.78582010    0.17584002    0.51560099    0.10020000
opls_700-106    C    0.76722013    0.21359999    0.50079097    0.02080000
opls_145-107    C    0.71112002    0.25610008    0.65688121    -0.17640000
opls_166-108    C    0.72775012    0.21984003    0.65320005    0.28350000
opls_182-109    C    0.68117013    0.17035998    0.58211046    -0.00760000
opls_927-110    C    0.64689007    0.19331013    0.50051978    -0.03720000
opls_925-111    C    0.61887992    0.21216990    0.43210946    -0.12090000
opls_145-112    C    0.48003997    0.56862001    0.46784886    -0.07290000
opls_700-113    C    0.45912998    0.53477992    0.42825002    0.00260000
opls_700-114    C    0.41816001    0.53460999    0.36330993    0.03880000
opls_145-115    C    0.39285013    0.56935004    0.35867960    0.09670000
opls_145-116    C    0.40449999    0.60010009    0.15071916    -0.10390000
opls_145-117    C    0.38056994    0.63259011    0.15600988    -0.13950000
opls_145-118    C    0.34393997    0.63458992    0.35979952    0.27510000
opls_145-119    C    0.33136005    0.60331991    0.56049055    -0.10520000
opls_145-120    C    0.35566001    0.57109001    0.55955896    -0.10160000
opls_142-121    C    0.28582010    0.67584002    0.51560099    0.10020000
opls_700-122    C    0.26722013    0.71359999    0.50079097    0.02080000
opls_145-123    C    0.21112002    0.75610008    0.65688121    -0.17640000
opls_166-124    C    0.22775012    0.71984003    0.65320005    0.28350000
opls_182-125    C    0.18117013    0.67035998    0.58211046    -0.00760000
opls_927-126    C    0.14689007    0.69331013    0.50051978    -0.03720000
opls_925-127    C    0.11887992    0.71216990    0.43210946    -0.12090000
opls_700-128    C    0.97960011    0.00000000    0.46213879    -0.00030000
opls_700-129    C    0.47960011    0.50000000    0.46213879    -0.00030000
opls_700-130    C    0.02040019    0.00000000    0.53786121    -0.00030000
opls_700-131    C    0.52040019    0.50000000    0.53786121    -0.00030000
opls_145-132    C    0.60103999    0.50000000    0.67469943    -0.13040000
opls_145-133    C    0.10103999    0.00000000    0.67469943    -0.13040000
opls_145-134    C    0.39896001    0.50000000    0.32530057    -0.13040000
opls_145-135    C    0.89896001    0.00000000    0.32530057    -0.13040000
opls_750-136    N    0.82137995    0.83080999    0.35986983    -0.22090000
opls_750-137    N    0.32137995    0.33080999    0.35986983    -0.22090000
opls_750-138    N    0.17862005    0.83080999    0.64013017    -0.22100000
opls_750-139    N    0.67862005    0.33080999    0.64013017    -0.22100000
opls_750-140    N    0.17862005    0.16919001    0.64013017    -0.22100000
opls_750-141    N    0.67862005    0.66919001    0.64013017    -0.22100000
opls_750-142    N    0.82137995    0.16919001    0.35986983    -0.22090000
opls_750-143    N    0.32137995    0.66919001    0.35986983    -0.22090000
opls_179-144    O    0.70468009    0.80998010    0.80419040    -0.18940000
opls_179-145    O    0.20468009    0.30998010    0.80419040    -0.18940000
opls_179-146    O    0.29531991    0.80998010    0.19580960    -0.18940000
opls_179-147    O    0.79531991    0.30998010    0.19580960    -0.18940000
opls_179-148    O    0.29531991    0.19001990    0.19580960    -0.18940000
opls_179-149    O    0.79531991    0.69001990    0.19580960    -0.18940000
opls_179-150    O    0.70468009    0.19001990    0.80419040    -0.18940000
opls_179-151    O    0.20468009    0.69001990    0.80419040    -0.18940000
opls_146-152    H    0.96447018    0.90298996    0.44773054    0.05170000
opls_146-153    H    0.93447008    0.90064012    0.96788903    0.05170000
opls_146-154    H    0.89178993    0.84234995    0.98832123    0.05170000
opls_146-155    H    0.80051002    0.89644004    0.73149878    0.05170000
opls_146-156    H    0.84447011    0.95396993    0.72727022    0.05170000
opls_144-157    H    0.76781997    0.84744998    0.66927060    0.03050000
opls_146-158    H    0.67883007    0.73854005    0.79231074    0.05170000
opls_185-159    H    0.70221996    0.83721005    0.33885005    0.04710000
opls_185-160    H    0.66796026    0.85676988    0.70817891    0.04710000
opls_926-161    H    0.59265015    0.77016998    0.36805074    0.05170000
opls_146-162    H    0.46447018    0.40298996    0.44773054    0.05170000
opls_146-163    H    0.43447008    0.40064012    0.96788903    0.05170000
opls_146-164    H    0.39178993    0.34234995    0.98832123    0.05170000
opls_146-165    H    0.30051002    0.39644004    0.73149878    0.05170000
opls_146-166    H    0.34447011    0.45396993    0.72727022    0.05170000
opls_144-167    H    0.26781997    0.34744998    0.66927060    0.03050000
opls_146-168    H    0.17883007    0.23854005    0.79231074    0.05170000
opls_185-169    H    0.20221996    0.33721005    0.33885005    0.04710000
opls_185-170    H    0.16796026    0.35676988    0.70817891    0.04710000
opls_926-171    H    0.09265015    0.27016998    0.36805074    0.05170000
opls_146-172    H    0.03553012    0.90298996    0.55226946    0.05170000
opls_146-173    H    0.06553022    0.90064012    0.03211097    0.05170000
opls_146-174    H    0.10821002    0.84234995    0.01168128    0.05170000
opls_146-175    H    0.19948998    0.89644004    0.26850122    0.05170000
opls_146-176    H    0.15553019    0.95396993    0.27272978    0.05170000
opls_144-177    H    0.23218003    0.84744998    0.33072940    0.03050000
opls_146-178    H    0.32116993    0.73854005    0.20768926    0.05170000
opls_185-179    H    0.29778004    0.83721005    0.66114995    0.04710000
opls_185-180    H    0.33204004    0.85676988    0.29182109    0.04710000
opls_926-181    H    0.40735015    0.77016998    0.63194926    0.05170000
opls_146-182    H    0.53553012    0.40298996    0.55226946    0.05170000
opls_146-183    H    0.56553022    0.40064012    0.03211097    0.05170000
opls_146-184    H    0.60821002    0.34234995    0.01168128    0.05170000
opls_146-185    H    0.69948998    0.39644004    0.26850122    0.05170000
opls_146-186    H    0.65553019    0.45396993    0.27272978    0.05170000
opls_144-187    H    0.73218003    0.34744998    0.33072940    0.03050000
opls_146-188    H    0.82116993    0.23854005    0.20768926    0.05170000
opls_185-189    H    0.79778004    0.33721005    0.66114995    0.04710000
opls_185-190    H    0.83204004    0.35676988    0.29182109    0.04710000
opls_926-191    H    0.90735015    0.27016998    0.63194926    0.05170000
opls_146-192    H    0.03553012    0.09701004    0.55226946    0.05170000
opls_146-193    H    0.06553022    0.09935988    0.03211097    0.05170000
opls_146-194    H    0.10821002    0.15765005    0.01168128    0.05170000
opls_146-195    H    0.19948998    0.10355996    0.26850122    0.05170000
opls_146-196    H    0.15553019    0.04603007    0.27272978    0.05170000
opls_144-197    H    0.23218003    0.15255002    0.33072940    0.03050000
opls_146-198    H    0.32116993    0.26145995    0.20768926    0.05170000
opls_185-199    H    0.29778004    0.16278995    0.66114995    0.04710000
opls_185-200    H    0.33204004    0.14323012    0.29182109    0.04710000
opls_926-201    H    0.40735015    0.22983002    0.63194926    0.05170000
opls_146-202    H    0.53553012    0.59701004    0.55226946    0.05170000
opls_146-203    H    0.56553022    0.59935988    0.03211097    0.05170000
opls_146-204    H    0.60821002    0.65765005    0.01168128    0.05170000
opls_146-205    H    0.69948998    0.60355996    0.26850122    0.05170000
opls_146-206    H    0.65553019    0.54603007    0.27272978    0.05170000
opls_144-207    H    0.73218003    0.65255002    0.33072940    0.03050000
opls_146-208    H    0.82116993    0.76145995    0.20768926    0.05170000
opls_185-209    H    0.79778004    0.66278995    0.66114995    0.04710000
opls_185-210    H    0.83204004    0.64323012    0.29182109    0.04710000
opls_926-211    H    0.90735015    0.72983002    0.63194926    0.05170000
opls_146-212    H    0.96447018    0.09701004    0.44773054    0.05170000
opls_146-213    H    0.93447008    0.09935988    0.96788903    0.05170000
opls_146-214    H    0.89178993    0.15765005    0.98832123    0.05170000
opls_146-215    H    0.80051002    0.10355996    0.73149878    0.05170000
opls_146-216    H    0.84447011    0.04603007    0.72727022    0.05170000
opls_144-217    H    0.76781997    0.15255002    0.66927060    0.03050000
opls_146-218    H    0.67883007    0.26145995    0.79231074    0.05170000
opls_185-219    H    0.70221996    0.16278995    0.33885005    0.04710000
opls_185-220    H    0.66796026    0.14323012    0.70817891    0.04710000
opls_926-221    H    0.59265015    0.22983002    0.36805074    0.05170000
opls_146-222    H    0.46447018    0.59701004    0.44773054    0.05170000
opls_146-223    H    0.43447008    0.59935988    0.96788903    0.05170000
opls_146-224    H    0.39178993    0.65765005    0.98832123    0.05170000
opls_146-225    H    0.30051002    0.60355996    0.73149878    0.05170000
opls_146-226    H    0.34447011    0.54603007    0.72727022    0.05170000
opls_144-227    H    0.26781997    0.65255002    0.66927060    0.03050000
opls_146-228    H    0.17883007    0.76145995    0.79231074    0.05170000
opls_185-229    H    0.20221996    0.66278995    0.33885005    0.04710000
opls_185-230    H    0.16796026    0.64323012    0.70817891    0.04710000
opls_926-231    H    0.09265015    0.72983002    0.36805074    0.05170000
opls_146-232    H    0.63210012    0.50000000    0.72924890    0.07320000
opls_146-233    H    0.13210012    0.00000000    0.72924890    0.07320000
opls_146-234    H    0.36789988    0.50000000    0.27075110    0.07320000
opls_146-235    H    0.86789988    0.00000000    0.27075110    0.07320000
