#======================================================================
# Crystal Data Generated By AuToFF
#----------------------------------------------------------------------

data_AuToFF_phase_1

_cell_length_a                         28.1415
_cell_length_b                         28.8877
_cell_length_c                         3.9107
_cell_angle_alpha                      90.00
_cell_angle_beta                       70.46
_cell_angle_gamma                      90.00
_symmetry_space_group_name_H-M_alt     'P 1'
_symmetry_space_group_IT_number        1

loop_
_space_group_symop_operation_xyz
   'x, y, z'

loop_
   _atom_site_label
   _atom_site_type_symbol
   _atom_site_fract_x
   _atom_site_fract_y
   _atom_site_fract_z
   _atom_site_charge
opls_700-0    C    0.04201007    0.55000987    0.03212065    0.00140000
opls_700-1    C    0.54201007    0.05000987    0.03212065    0.00140000
opls_700-2    C    0.95798993    0.55000987    0.96787935    0.00140000
opls_700-3    C    0.45798993    0.05000987    0.96787935    0.00140000
opls_700-4    C    0.95798993    0.44999013    0.96787935    0.00140000
opls_700-5    C    0.45798993    0.94999013    0.96787935    0.00140000
opls_700-6    C    0.04201007    0.44999013    0.03212065    0.00140000
opls_700-7    C    0.54201007    0.94999013    0.03212065    0.00140000
opls_145-8    C    0.08052993    0.47582985    0.09979975    -0.24520000
opls_145-9    C    0.58052993    0.97582985    0.09979975    -0.24510000
opls_145-10    C    0.91947007    0.47582985    0.90020025    -0.24520000
opls_145-11    C    0.41947007    0.97582985    0.90020025    -0.24520000
opls_145-12    C    0.91947007    0.52417015    0.90020025    -0.24520000
opls_145-13    C    0.41947007    0.02417015    0.90020025    -0.24510000
opls_145-14    C    0.08052993    0.52417015    0.09979975    -0.24510000
opls_145-15    C    0.58052993    0.02417015    0.09979975    -0.24520000
opls_700-16    C    0.04425997    0.40066014    0.00135939    0.01950000
opls_700-17    C    0.54425997    0.90066014    0.00135939    0.01950000
opls_700-18    C    0.95574018    0.40066014    0.99862976    0.01950000
opls_700-19    C    0.45574018    0.90066014    0.99862976    0.01950000
opls_700-20    C    0.95574018    0.59933986    0.99862976    0.01950000
opls_700-21    C    0.45574018    0.09933986    0.99862976    0.01950000
opls_700-22    C    0.04425997    0.59933986    0.00135939    0.01950000
opls_700-23    C    0.54425997    0.09933986    0.00135939    0.01950000
opls_700-24    C    0.08857993    0.37400001    0.96207007    0.04920000
opls_700-25    C    0.58857993    0.87400001    0.96207007    0.04920000
opls_700-26    C    0.91142007    0.37400001    0.03792993    0.04920000
opls_700-27    C    0.41142007    0.87400001    0.03792993    0.04920000
opls_700-28    C    0.91142007    0.62599999    0.03792993    0.04920000
opls_700-29    C    0.41142007    0.12599999    0.03792993    0.04920000
opls_700-30    C    0.08857993    0.62599999    0.96207007    0.04920000
opls_700-31    C    0.58857993    0.12599999    0.96207007    0.04920000
opls_145-32    C    0.08774985    0.33216005    0.15402064    -0.21620000
opls_145-33    C    0.58774985    0.83216005    0.15402064    -0.21620000
opls_145-34    C    0.91225029    0.33216005    0.84596850    -0.21620000
opls_145-35    C    0.41225029    0.83216005    0.84596850    -0.21620000
opls_145-36    C    0.91225029    0.66784998    0.84596850    -0.21620000
opls_145-37    C    0.41225029    0.16784998    0.84596850    -0.21620000
opls_145-38    C    0.08774985    0.66784998    0.15402064    -0.21620000
opls_145-39    C    0.58774985    0.16784998    0.15402064    -0.21620000
opls_145-40    C    0.13203983    0.30622999    0.10744055    -0.21700000
opls_145-41    C    0.63203983    0.80622999    0.10744055    -0.21700000
opls_145-42    C    0.86796017    0.30622999    0.89255945    -0.21700000
opls_145-43    C    0.36796017    0.80622999    0.89255945    -0.21700000
opls_145-44    C    0.86796017    0.69377001    0.89255945    -0.21700000
opls_145-45    C    0.36796017    0.19377001    0.89255945    -0.21700000
opls_145-46    C    0.13203983    0.69377001    0.10744055    -0.21700000
opls_145-47    C    0.63203983    0.19377001    0.10744055    -0.21700000
opls_700-48    C    0.17933003    0.32122010    0.86780012    0.03810000
opls_700-49    C    0.67933003    0.82122010    0.86780012    0.03810000
opls_700-50    C    0.82066997    0.32122010    0.13219988    0.03810000
opls_700-51    C    0.32066997    0.82122010    0.13219988    0.03810000
opls_700-52    C    0.82066997    0.67877990    0.13219988    0.03810000
opls_700-53    C    0.32066997    0.17877990    0.13219988    0.03810000
opls_700-54    C    0.17933003    0.67877990    0.86780012    0.03810000
opls_700-55    C    0.67933003    0.17877990    0.86780012    0.03810000
opls_145-56    C    0.18036989    0.36254011    0.67206985    -0.21820000
opls_145-57    C    0.68036989    0.86254011    0.67206985    -0.21820000
opls_145-58    C    0.81964021    0.36254011    0.32791929    -0.21820000
opls_145-59    C    0.31964006    0.86254011    0.32793015    -0.21820000
opls_145-60    C    0.81964021    0.63745989    0.32791929    -0.21810000
opls_145-61    C    0.31964006    0.13745989    0.32793015    -0.21820000
opls_145-62    C    0.18036989    0.63745989    0.67206985    -0.21820000
opls_145-63    C    0.68036989    0.13745989    0.67206985    -0.21810000
opls_145-64    C    0.13599999    0.38778996    0.71507918    -0.21800000
opls_145-65    C    0.63599999    0.88778996    0.71507918    -0.21810000
opls_145-66    C    0.86400001    0.38778996    0.28492082    -0.21810000
opls_145-67    C    0.36400001    0.88778996    0.28492082    -0.21820000
opls_145-68    C    0.86400001    0.61221004    0.28492082    -0.21820000
opls_145-69    C    0.36400001    0.11221004    0.28492082    -0.21820000
opls_145-70    C    0.13599999    0.61221004    0.71507918    -0.21810000
opls_145-71    C    0.63599999    0.11221004    0.71507918    -0.21810000
opls_142-72    C    0.22475022    0.29702988    0.81925828    0.02180000
opls_142-73    C    0.72475022    0.79702988    0.81925828    0.02180000
opls_142-74    C    0.77524990    0.29702988    0.18073901    0.02180000
opls_142-75    C    0.27524990    0.79702988    0.18073901    0.02180000
opls_142-76    C    0.77524990    0.70297012    0.18073901    0.02180000
opls_142-77    C    0.27524990    0.20297012    0.18073901    0.02180000
opls_142-78    C    0.22475022    0.70297012    0.81925828    0.02180000
opls_142-79    C    0.72475022    0.20297012    0.81925828    0.02190000
opls_145-80    C    0.00000000    0.37744992    0.00000000    -0.12240000
opls_145-81    C    0.50000000    0.87744992    0.00000000    -0.12240000
opls_145-82    C    0.00000000    0.62255008    0.00000000    -0.12230000
opls_145-83    C    0.50000000    0.12255008    0.00000000    -0.12230000
opls_700-84    C    0.00000000    0.52491995    0.00000000    -0.00070000
opls_700-85    C    0.50000000    0.02491995    0.00000000    -0.00070000
opls_700-86    C    0.00000000    0.47508005    0.00000000    -0.00070000
opls_700-87    C    0.50000000    0.97508005    0.00000000    -0.00070000
opls_146-88    H    0.10947992    0.45978011    0.15377101    0.17390000
opls_146-89    H    0.60947992    0.95978011    0.15377101    0.17400000
opls_146-90    H    0.89052008    0.45978011    0.84622899    0.17390000
opls_146-91    H    0.39052008    0.95978011    0.84622899    0.17390000
opls_146-92    H    0.89052008    0.54021989    0.84622899    0.17390000
opls_146-93    H    0.39052008    0.04021989    0.84622899    0.17400000
opls_146-94    H    0.10947992    0.54021989    0.15377101    0.17390000
opls_146-95    H    0.60947992    0.04021989    0.15377101    0.17390000
opls_146-96    H    0.05466020    0.32023006    0.33426853    0.17380000
opls_146-97    H    0.55466020    0.82023006    0.33426853    0.17390000
opls_146-98    H    0.94533992    0.32023006    0.66572875    0.17380000
opls_146-99    H    0.44533992    0.82023006    0.66572875    0.17380000
opls_146-100    H    0.94533992    0.67976994    0.66572875    0.17380000
opls_146-101    H    0.44533992    0.17976994    0.66572875    0.17380000
opls_146-102    H    0.05466020    0.67976994    0.33426853    0.17380000
opls_146-103    H    0.55466020    0.17976994    0.33426853    0.17380000
opls_146-104    H    0.12964013    0.27638995    0.25332928    0.17380000
opls_146-105    H    0.62964013    0.77638995    0.25332928    0.17390000
opls_146-106    H    0.87035999    0.27638995    0.74666801    0.17380000
opls_146-107    H    0.37035999    0.77638995    0.74666801    0.17380000
opls_146-108    H    0.87035999    0.72361005    0.74666801    0.17380000
opls_146-109    H    0.37035999    0.22361005    0.74666801    0.17380000
opls_146-110    H    0.12964013    0.72361005    0.25332928    0.17380000
opls_146-111    H    0.62964013    0.22361005    0.25332928    0.17380000
opls_146-112    H    0.21357022    0.37463003    0.49272822    0.17400000
opls_146-113    H    0.71357022    0.87463003    0.49272822    0.17390000
opls_146-114    H    0.78642990    0.37463003    0.50726907    0.17390000
opls_146-115    H    0.28642990    0.87463003    0.50726907    0.17380000
opls_146-116    H    0.78642990    0.62536997    0.50726907    0.17380000
opls_146-117    H    0.28642990    0.12536997    0.50726907    0.17380000
opls_146-118    H    0.21357022    0.62536997    0.49272822    0.17390000
opls_146-119    H    0.71357022    0.12536997    0.49272822    0.17380000
opls_146-120    H    0.13881018    0.41669015    0.55947936    0.17380000
opls_146-121    H    0.63881018    0.91669015    0.55947936    0.17380000
opls_146-122    H    0.86118982    0.41669015    0.44052064    0.17390000
opls_146-123    H    0.36118982    0.91669015    0.44052064    0.17380000
opls_146-124    H    0.86118982    0.58330985    0.44052064    0.17390000
opls_146-125    H    0.36118982    0.08330985    0.44052064    0.17380000
opls_146-126    H    0.13881018    0.58330985    0.55947936    0.17380000
opls_146-127    H    0.63881018    0.08330985    0.55947936    0.17380000
opls_144-128    H    0.25688007    0.30770986    0.61959908    0.08480000
opls_144-129    H    0.75688007    0.80770986    0.61959908    0.08470000
opls_144-130    H    0.74311993    0.30770986    0.38040092    0.08470000
opls_144-131    H    0.24311993    0.80770986    0.38040092    0.08470000
opls_144-132    H    0.74311993    0.69229014    0.38040092    0.08470000
opls_144-133    H    0.24311993    0.19229014    0.38040092    0.08470000
opls_144-134    H    0.25688007    0.69229014    0.61959908    0.08470000
opls_144-135    H    0.75688007    0.19229014    0.61959908    0.08470000
opls_146-136    H    0.00000000    0.34205008    0.00000000    0.17390000
opls_146-137    H    0.50000000    0.84205008    0.00000000    0.17390000
opls_146-138    H    0.00000000    0.65794992    0.00000000    0.17380000
opls_146-139    H    0.50000000    0.15794992    0.00000000    0.17380000
opls_750-140    N    0.22873006    0.26050014    0.02351932    0.00530000
opls_750-141    N    0.72873006    0.76050014    0.02351932    0.00530000
opls_750-142    N    0.77127007    0.26050014    0.97647796    0.00530000
opls_750-143    N    0.27127007    0.76050014    0.97647796    0.00530000
opls_750-144    N    0.77127007    0.73949986    0.97647796    0.00530000
opls_750-145    N    0.27127007    0.23949986    0.97647796    0.00530000
opls_750-146    N    0.22873006    0.73949986    0.02351932    0.00530000
opls_750-147    N    0.72873006    0.23949986    0.02351932    0.00530000
