#======================================================================
# Crystal Data Generated By AuToFF
#----------------------------------------------------------------------

data_AuToFF_phase_1

_cell_length_a                         37.1453
_cell_length_b                         37.1453
_cell_length_c                         3.4951
_cell_angle_alpha                      90.00
_cell_angle_beta                       90.00
_cell_angle_gamma                      120.00
_symmetry_space_group_name_H-M_alt     'P 1'
_symmetry_space_group_IT_number        1

loop_
_space_group_symop_operation_xyz
   'x, y, z'

loop_
   _atom_site_label
   _atom_site_type_symbol
   _atom_site_fract_x
   _atom_site_fract_y
   _atom_site_fract_z
   _atom_site_charge
opls_531-0    C    0.29220012    0.64329006    0.49210895    0.40500000
opls_700-1    C    0.24645005    0.61732015    0.49533061    -0.00110000
opls_523-2    C    0.36498010    0.58628011    0.42001946    -0.12010000
opls_145-3    C    0.38916991    0.56728000    0.42526966    -0.14010000
opls_145-4    C    0.43207004    0.59090012    0.51262911    0.21860000
opls_145-5    C    0.45002020    0.63402020    0.58075878    -0.18110000
opls_523-6    C    0.42563002    0.65278001    0.57325112    -0.12020000
opls_142-7    C    0.44612011    0.53560021    0.58707905    0.03070000
opls_700-8    C    0.47434000    0.51881996    0.58307058    -0.03230000
opls_145-9    C    0.45677000    0.47515991    0.58808046    -0.21210000
opls_166-10    C    0.48135002    0.45624996    0.58038110    0.28130000
opls_531-11    C    0.35671001    0.64891011    0.49210895    0.40500000
opls_700-12    C    0.38267997    0.62913005    0.49533061    -0.00110000
opls_523-13    C    0.41371996    0.77869996    0.42001946    -0.12010000
opls_145-14    C    0.43272002    0.82188999    0.42526966    -0.14010000
opls_145-15    C    0.40910019    0.84117018    0.51262911    0.21860000
opls_145-16    C    0.36597994    0.81600011    0.58075878    -0.18110000
opls_523-17    C    0.34722013    0.77285019    0.57325112    -0.12020000
opls_142-18    C    0.46440008    0.91052005    0.58707905    0.03070000
opls_700-19    C    0.48118019    0.95552021    0.58307058    -0.03230000
opls_145-20    C    0.52484005    0.98161011    0.58808046    -0.21210000
opls_166-21    C    0.54374997    0.02510012    0.58038110    0.28130000
opls_531-22    C    0.35109003    0.70780014    0.49210895    0.40500000
opls_700-23    C    0.37087013    0.75355010    0.49533061    -0.00110000
opls_523-24    C    0.22129995    0.63501993    0.42001946    -0.12010000
opls_145-25    C    0.17811007    0.61083001    0.42526966    -0.14010000
opls_145-26    C    0.15882993    0.56793001    0.51262911    0.21860000
opls_145-27    C    0.18400002    0.54998000    0.58075878    -0.18110000
opls_523-28    C    0.22715000    0.57437011    0.57325112    -0.12020000
opls_142-29    C    0.08947997    0.55388005    0.58707905    0.03070000
opls_700-30    C    0.04447997    0.52566014    0.58307058    -0.03230000
opls_145-31    C    0.01838995    0.54322997    0.58808046    -0.21210000
opls_166-32    C    0.97490001    0.51864992    0.58038110    0.28130000
opls_531-33    C    0.70779988    0.35670994    0.49210895    0.40500000
opls_700-34    C    0.75355010    0.38268016    0.49533061    -0.00110000
opls_523-35    C    0.63501990    0.41371989    0.42001946    -0.12010000
opls_145-36    C    0.61083009    0.43272000    0.42526966    -0.14010000
opls_145-37    C    0.56793012    0.40910019    0.51262911    0.21860000
opls_145-38    C    0.54997996    0.36598011    0.58075878    -0.18110000
opls_523-39    C    0.57436998    0.34721999    0.57325112    -0.12020000
opls_142-40    C    0.55388005    0.46440010    0.58707905    0.03070000
opls_700-41    C    0.52566000    0.48118004    0.58307058    -0.03230000
opls_145-42    C    0.54323000    0.52484009    0.58808046    -0.21210000
opls_166-43    C    0.51864998    0.54375004    0.58038110    0.28130000
opls_531-44    C    0.64328999    0.35108989    0.49210895    0.40500000
opls_700-45    C    0.61732003    0.37086995    0.49533061    -0.00110000
opls_523-46    C    0.58628004    0.22130004    0.42001946    -0.12010000
opls_145-47    C    0.56727998    0.17811001    0.42526966    -0.14010000
opls_145-48    C    0.59089996    0.15883013    0.51262911    0.21860000
opls_145-49    C    0.63402006    0.18399989    0.58075878    -0.18110000
opls_523-50    C    0.65278002    0.22715012    0.57325112    -0.12020000
opls_142-51    C    0.53559992    0.08947995    0.58707905    0.03070000
opls_700-52    C    0.51881997    0.04448010    0.58307058    -0.03230000
opls_145-53    C    0.47515995    0.01838989    0.58808046    -0.21210000
opls_166-54    C    0.45625019    0.97490019    0.58038110    0.28140000
opls_531-55    C    0.64891013    0.29220017    0.49210895    0.40500000
opls_700-56    C    0.62912987    0.24644990    0.49533061    -0.00110000
opls_523-57    C    0.77870005    0.36498007    0.42001946    -0.12010000
opls_145-58    C    0.82188993    0.38916999    0.42526966    -0.14000000
opls_145-59    C    0.84117007    0.43206999    0.51262911    0.21860000
opls_145-60    C    0.81599998    0.45002000    0.58075878    -0.18100000
opls_523-61    C    0.77285015    0.42563020    0.57325112    -0.12020000
opls_142-62    C    0.91052003    0.44611995    0.58707905    0.03070000
opls_700-63    C    0.95552019    0.47434018    0.58307058    -0.03230000
opls_145-64    C    0.98161005    0.45677003    0.58808046    -0.21210000
opls_166-65    C    0.02509999    0.48135008    0.58038110    0.28130000
opls_520-66    N    0.31502006    0.62426011    0.49198020    -0.38210000
opls_750-67    N    0.45873004    0.57437011    0.51900089    -0.27060000
opls_520-68    N    0.37573997    0.69076001    0.49198020    -0.38210000
opls_750-69    N    0.42563023    0.88436020    0.51900089    -0.27060000
opls_520-70    N    0.30924013    0.68498018    0.49198020    -0.38190000
opls_750-71    N    0.11563988    0.54127000    0.51900089    -0.27060000
opls_520-72    N    0.68497994    0.37573989    0.49198020    -0.38210000
opls_750-73    N    0.54127011    0.42563020    0.51900089    -0.27060000
opls_520-74    N    0.62426003    0.30923999    0.49198020    -0.38200000
opls_750-75    N    0.57436993    0.11564011    0.51900089    -0.27060000
opls_520-76    N    0.69076003    0.31502013    0.49198020    -0.38210000
opls_750-77    N    0.88436012    0.45873000    0.51900089    -0.27050000
opls_526-78    H    0.33161010    0.56781002    0.35217876    0.10950000
opls_146-79    H    0.37466997    0.53402011    0.35473091    0.07460000
opls_146-80    H    0.48337992    0.65254997    0.64811021    0.07460000
opls_526-81    H    0.43973011    0.68629015    0.63102916    0.08620000
opls_144-82    H    0.41274992    0.51259995    0.65552917    0.04710000
opls_146-83    H    0.57723992    0.54494001    0.59034076    0.12940000
opls_168-84    H    0.51959015    0.59677010    0.57402936    0.38540000
opls_526-85    H    0.43219013    0.76380011    0.35217876    0.10950000
opls_146-86    H    0.46598009    0.84065011    0.35473091    0.07460000
opls_146-87    H    0.34745002    0.83083003    0.64811021    0.07460000
opls_526-88    H    0.31370990    0.75344006    0.63102916    0.08620000
opls_144-89    H    0.48740007    0.90015005    0.65552917    0.04690000
opls_146-90    H    0.45505988    0.03229996    0.59034076    0.12940000
opls_168-91    H    0.40323018    0.92282018    0.57402936    0.38550000
opls_526-92    H    0.23620019    0.66839018    0.35217876    0.11290000
opls_146-93    H    0.15935009    0.62533009    0.35473091    0.07460000
opls_146-94    H    0.16917006    0.51662000    0.64811021    0.07460000
opls_526-95    H    0.24656014    0.56027010    0.63102916    0.08620000
opls_144-96    H    0.09985001    0.58724999    0.65552917    0.04690000
opls_146-97    H    0.96769992    0.42276002    0.59034076    0.12940000
opls_168-98    H    0.07718009    0.48041004    0.57402936    0.38540000
opls_526-99    H    0.66838990    0.43218998    0.35217876    0.10950000
opls_146-100    H    0.62533018    0.46598020    0.35473091    0.07460000
opls_146-101    H    0.51662008    0.34745003    0.64811021    0.07460000
opls_526-102    H    0.56027005    0.31371016    0.63102916    0.08450000
opls_144-103    H    0.58725008    0.48740005    0.65552917    0.04690000
opls_146-104    H    0.42276008    0.45505999    0.59034076    0.12950000
opls_168-105    H    0.48040985    0.40322990    0.57402936    0.38540000
opls_526-106    H    0.56780987    0.23619989    0.35217876    0.10950000
opls_146-107    H    0.53401991    0.15934989    0.35473091    0.07460000
opls_146-108    H    0.65254998    0.16916997    0.64811021    0.07460000
opls_526-109    H    0.68629010    0.24655994    0.63102916    0.08620000
opls_144-110    H    0.51259993    0.09984995    0.65552917    0.04690000
opls_146-111    H    0.54494012    0.96770004    0.59034076    0.12940000
opls_168-112    H    0.59676997    0.07718013    0.57402936    0.38540000
opls_526-113    H    0.76379997    0.33161013    0.35217876    0.10950000
opls_146-114    H    0.84064991    0.37466991    0.35473091    0.07460000
opls_146-115    H    0.83082994    0.48338000    0.64811021    0.07460000
opls_526-116    H    0.75343986    0.43972990    0.63102916    0.08620000
opls_144-117    H    0.90014999    0.41275001    0.65552917    0.04690000
opls_146-118    H    0.03230008    0.57723998    0.59034076    0.12940000
opls_168-119    H    0.92281991    0.51958996    0.57402936    0.38550000
opls_167-120    O    0.46061010    0.41369005    0.57762868    -0.38300000
opls_167-121    O    0.58630996    0.04692004    0.57762868    -0.38300000
opls_167-122    O    0.95307993    0.53938991    0.57762868    -0.38300000
opls_167-123    O    0.53938990    0.58630995    0.57762868    -0.38290000
opls_167-124    O    0.41369004    0.95307996    0.57762868    -0.38300000
opls_167-125    O    0.04692007    0.46061009    0.57762868    -0.38300000
