#======================================================================
# Crystal Data Generated By AuToFF
#----------------------------------------------------------------------

data_AuToFF_phase_1

_cell_length_a                         35.7976
_cell_length_b                         50.1668
_cell_length_c                         6.8319
_cell_angle_alpha                      90.00
_cell_angle_beta                       90.00
_cell_angle_gamma                      90.00
_symmetry_space_group_name_H-M_alt     'P 1'
_symmetry_space_group_IT_number        1

loop_
_space_group_symop_operation_xyz
   'x, y, z'

loop_
   _atom_site_label
   _atom_site_type_symbol
   _atom_site_fract_x
   _atom_site_fract_y
   _atom_site_fract_z
   _atom_site_charge
opls_145-0    C    0.38951997    0.41625996    0.82437975    -0.15750000
opls_145-1    C    0.36682012    0.39304002    0.82438999    -0.16050000
opls_145-2    C    0.88951997    0.91625996    0.82437975    -0.15750000
opls_145-3    C    0.86682012    0.89304002    0.82438999    -0.16050000
opls_145-4    C    0.61048003    0.58374004    0.82437975    -0.15750000
opls_145-5    C    0.63317988    0.60695998    0.82438999    -0.16050000
opls_145-6    C    0.11048003    0.08374004    0.82437975    -0.15750000
opls_145-7    C    0.13317988    0.10695998    0.82438999    -0.16050000
opls_145-8    C    0.61048003    0.41625996    0.17562025    -0.15750000
opls_145-9    C    0.63317988    0.39304002    0.17561001    -0.16050000
opls_145-10    C    0.11048003    0.91625996    0.17562025    -0.15750000
opls_145-11    C    0.13317988    0.89304002    0.17561001    -0.16050000
opls_145-12    C    0.38951997    0.58374004    0.17562025    -0.15750000
opls_145-13    C    0.36682012    0.60695998    0.17561001    -0.16050000
opls_145-14    C    0.88951997    0.08374004    0.17562025    -0.15750000
opls_145-15    C    0.86682012    0.10695998    0.17561001    -0.16050000
opls_145-16    C    0.61048003    0.58374004    0.17562025    -0.15740000
opls_145-17    C    0.63317988    0.60695998    0.17561001    -0.16050000
opls_145-18    C    0.11048003    0.08374004    0.17562025    -0.15750000
opls_145-19    C    0.13317988    0.10695998    0.17561001    -0.16040000
opls_145-20    C    0.38951997    0.41625996    0.17562025    -0.15750000
opls_145-21    C    0.36682012    0.39304002    0.17561001    -0.16050000
opls_145-22    C    0.88951997    0.91625996    0.17562025    -0.15750000
opls_145-23    C    0.86682012    0.89304002    0.17561001    -0.16050000
opls_145-24    C    0.38951997    0.58374004    0.82437975    -0.15750000
opls_145-25    C    0.36682012    0.60695998    0.82438999    -0.16050000
opls_145-26    C    0.88951997    0.08374004    0.82437975    -0.15750000
opls_145-27    C    0.86682012    0.10695998    0.82438999    -0.16050000
opls_145-28    C    0.61048003    0.41625996    0.82437975    -0.15750000
opls_145-29    C    0.63317988    0.39304002    0.82438999    -0.16050000
opls_145-30    C    0.11048003    0.91625996    0.82437975    -0.15750000
opls_145-31    C    0.13317988    0.89304002    0.82438999    -0.16050000
opls_716-32    C    0.38331005    0.51349000    0.00000000    -0.18130000
opls_543-33    C    0.42044997    0.47840006    0.00000000    0.22540000
opls_700-34    C    0.43096995    0.45132996    0.00000000    -0.12170000
opls_543-35    C    0.46944013    0.44442998    0.00000000    0.22420000
opls_716-36    C    0.48091995    0.41845005    0.00000000    -0.18110000
opls_700-37    C    0.40139004    0.42861992    0.00000000    0.07160000
opls_145-38    C    0.64463009    0.61941005    0.00000000    0.21960000
opls_523-39    C    0.80293008    0.76061997    0.00000000    -0.12140000
opls_521-40    C    0.74938990    0.78903996    0.00000000    0.03160000
opls_521-41    C    0.81158988    0.80881998    0.00000000    0.05790000
opls_522-42    C    0.82656994    0.78313008    0.00000000    -0.16390000
opls_142-43    C    0.83865008    0.83273998    0.00000000    0.03330000
opls_700-44    C    0.23688990    0.23748993    0.00000000    0.01490000
opls_716-45    C    0.88331005    0.01349000    0.00000000    -0.18130000
opls_543-46    C    0.92044997    0.97840006    0.00000000    0.22540000
opls_700-47    C    0.93096995    0.95132996    0.00000000    -0.12170000
opls_543-48    C    0.96944013    0.94442998    0.00000000    0.22420000
opls_716-49    C    0.98091995    0.91845005    0.00000000    -0.18110000
opls_700-50    C    0.90139004    0.92861992    0.00000000    0.07160000
opls_145-51    C    0.14463009    0.11941005    0.00000000    0.21960000
opls_523-52    C    0.30293008    0.26061997    0.00000000    -0.12140000
opls_521-53    C    0.24938990    0.28903996    0.00000000    0.03160000
opls_521-54    C    0.31158988    0.30881998    0.00000000    0.05790000
opls_522-55    C    0.32656994    0.28313008    0.00000000    -0.16390000
opls_142-56    C    0.33865008    0.33273998    0.00000000    0.03330000
opls_700-57    C    0.73688990    0.73748993    0.00000000    0.01490000
opls_716-58    C    0.61668995    0.48651000    0.00000000    -0.18130000
opls_543-59    C    0.57955003    0.52159994    0.00000000    0.22540000
opls_700-60    C    0.56903005    0.54867004    0.00000000    -0.12170000
opls_543-61    C    0.53055987    0.55557002    0.00000000    0.22420000
opls_716-62    C    0.51908005    0.58154995    0.00000000    -0.18110000
opls_700-63    C    0.59860996    0.57138008    0.00000000    0.07160000
opls_145-64    C    0.35536991    0.38058995    0.00000000    0.21960000
opls_523-65    C    0.19706992    0.23938003    0.00000000    -0.12140000
opls_521-66    C    0.25061010    0.21096004    0.00000000    0.03160000
opls_521-67    C    0.18841012    0.19118002    0.00000000    0.05790000
opls_522-68    C    0.17343006    0.21686992    0.00000000    -0.16390000
opls_142-69    C    0.16134992    0.16726002    0.00000000    0.03330000
opls_700-70    C    0.76311010    0.76251007    0.00000000    0.01490000
opls_716-71    C    0.11668995    0.98651000    0.00000000    -0.18130000
opls_543-72    C    0.07955003    0.02159994    0.00000000    0.22540000
opls_700-73    C    0.06903005    0.04867004    0.00000000    -0.12170000
opls_543-74    C    0.03055987    0.05557002    0.00000000    0.22420000
opls_716-75    C    0.01908005    0.08154995    0.00000000    -0.18110000
opls_700-76    C    0.09860996    0.07138008    0.00000000    0.07160000
opls_145-77    C    0.85536991    0.88058995    0.00000000    0.21960000
opls_523-78    C    0.69706992    0.73938003    0.00000000    -0.12140000
opls_521-79    C    0.75061010    0.71096004    0.00000000    0.03160000
opls_521-80    C    0.68841012    0.69118002    0.00000000    0.05790000
opls_522-81    C    0.67343006    0.71686992    0.00000000    -0.16390000
opls_142-82    C    0.66134992    0.66726002    0.00000000    0.03330000
opls_700-83    C    0.26311010    0.26251007    0.00000000    0.01490000
opls_716-84    C    0.61668995    0.51349000    0.00000000    -0.18130000
opls_543-85    C    0.57955003    0.47840006    0.00000000    0.22540000
opls_700-86    C    0.56903005    0.45132996    0.00000000    -0.12170000
opls_543-87    C    0.53055987    0.44442998    0.00000000    0.22420000
opls_716-88    C    0.51908005    0.41845005    0.00000000    -0.18110000
opls_700-89    C    0.59860996    0.42861992    0.00000000    0.07160000
opls_145-90    C    0.35536991    0.61941005    0.00000000    0.21960000
opls_523-91    C    0.19706992    0.76061997    0.00000000    -0.12140000
opls_521-92    C    0.25061010    0.78903996    0.00000000    0.03160000
opls_521-93    C    0.18841012    0.80881998    0.00000000    0.05790000
opls_522-94    C    0.17343006    0.78313008    0.00000000    -0.16390000
opls_142-95    C    0.16134992    0.83273998    0.00000000    0.03330000
opls_700-96    C    0.76311010    0.23748993    0.00000000    0.01490000
opls_716-97    C    0.11668995    0.01349000    0.00000000    -0.18130000
opls_543-98    C    0.07955003    0.97840006    0.00000000    0.22540000
opls_700-99    C    0.06903005    0.95132996    0.00000000    -0.12170000
opls_543-100    C    0.03055987    0.94442998    0.00000000    0.22430000
opls_716-101    C    0.01908005    0.91845005    0.00000000    -0.18110000
opls_700-102    C    0.09860996    0.92861992    0.00000000    0.07160000
opls_145-103    C    0.85536991    0.11941005    0.00000000    0.21960000
opls_523-104    C    0.69706992    0.26061997    0.00000000    -0.12140000
opls_521-105    C    0.75061010    0.28903996    0.00000000    0.03160000
opls_521-106    C    0.68841012    0.30881998    0.00000000    0.05790000
opls_522-107    C    0.67343006    0.28313008    0.00000000    -0.16390000
opls_142-108    C    0.66134992    0.33273998    0.00000000    0.03330000
opls_700-109    C    0.26311010    0.73748993    0.00000000    0.01490000
opls_716-110    C    0.38331005    0.48651000    0.00000000    -0.18130000
opls_543-111    C    0.42044997    0.52159994    0.00000000    0.22540000
opls_700-112    C    0.43096995    0.54867004    0.00000000    -0.12160000
opls_543-113    C    0.46944013    0.55557002    0.00000000    0.22420000
opls_716-114    C    0.48091995    0.58154995    0.00000000    -0.18110000
opls_700-115    C    0.40139004    0.57138008    0.00000000    0.07170000
opls_145-116    C    0.64463009    0.38058995    0.00000000    0.21960000
opls_523-117    C    0.80293008    0.23938003    0.00000000    -0.12140000
opls_521-118    C    0.74938990    0.21096004    0.00000000    0.03160000
opls_521-119    C    0.81158988    0.19118002    0.00000000    0.05790000
opls_522-120    C    0.82656994    0.21686992    0.00000000    -0.16390000
opls_142-121    C    0.83865008    0.16726002    0.00000000    0.03330000
opls_700-122    C    0.23688990    0.76251007    0.00000000    0.01490000
opls_716-123    C    0.88331005    0.98651000    0.00000000    -0.18130000
opls_543-124    C    0.92044997    0.02159994    0.00000000    0.22540000
opls_700-125    C    0.93096995    0.04867004    0.00000000    -0.12170000
opls_543-126    C    0.96944013    0.05557002    0.00000000    0.22420000
opls_716-127    C    0.98091995    0.08154995    0.00000000    -0.18110000
opls_700-128    C    0.90139004    0.07138008    0.00000000    0.07160000
opls_145-129    C    0.14463009    0.88058995    0.00000000    0.21960000
opls_523-130    C    0.30293008    0.73938003    0.00000000    -0.12140000
opls_521-131    C    0.24938990    0.71096004    0.00000000    0.03160000
opls_521-132    C    0.31158988    0.69118002    0.00000000    0.05790000
opls_522-133    C    0.32656994    0.71686992    0.00000000    -0.16390000
opls_142-134    C    0.33865008    0.66726002    0.00000000    0.03330000
opls_700-135    C    0.73688990    0.26251007    0.00000000    0.01490000
opls_146-136    H    0.39840995    0.42440997    0.68557941    0.13250000
opls_146-137    H    0.35819999    0.38471001    0.68575945    0.13190000
opls_146-138    H    0.89840995    0.92440997    0.68557941    0.13250000
opls_146-139    H    0.85819999    0.88471001    0.68575945    0.13190000
opls_146-140    H    0.60159005    0.57559003    0.68557941    0.13250000
opls_146-141    H    0.64180001    0.61528999    0.68575945    0.13190000
opls_146-142    H    0.10159005    0.07559003    0.68557941    0.13250000
opls_146-143    H    0.14180001    0.11528999    0.68575945    0.13200000
opls_146-144    H    0.60159005    0.42440997    0.31442059    0.13250000
opls_146-145    H    0.64180001    0.38471001    0.31424055    0.13190000
opls_146-146    H    0.10159005    0.92440997    0.31442059    0.13250000
opls_146-147    H    0.14180001    0.88471001    0.31424055    0.13200000
opls_146-148    H    0.39840995    0.57559003    0.31442059    0.13260000
opls_146-149    H    0.35819999    0.61528999    0.31424055    0.13190000
opls_146-150    H    0.89840995    0.07559003    0.31442059    0.13250000
opls_146-151    H    0.85819999    0.11528999    0.31424055    0.13190000
opls_146-152    H    0.60159005    0.57559003    0.31442059    0.13250000
opls_146-153    H    0.64180001    0.61528999    0.31424055    0.13190000
opls_146-154    H    0.10159005    0.07559003    0.31442059    0.13260000
opls_146-155    H    0.14180001    0.11528999    0.31424055    0.13190000
opls_146-156    H    0.39840995    0.42440997    0.31442059    0.13250000
opls_146-157    H    0.35819999    0.38471001    0.31424055    0.13190000
opls_146-158    H    0.89840995    0.92440997    0.31442059    0.13250000
opls_146-159    H    0.85819999    0.88471001    0.31424055    0.13190000
opls_146-160    H    0.39840995    0.57559003    0.68557941    0.13250000
opls_146-161    H    0.35819999    0.61528999    0.68575945    0.13190000
opls_146-162    H    0.89840995    0.07559003    0.68557941    0.13250000
opls_146-163    H    0.85819999    0.11528999    0.68575945    0.13200000
opls_146-164    H    0.60159005    0.42440997    0.68557941    0.13250000
opls_146-165    H    0.64180001    0.38471001    0.68575945    0.13190000
opls_146-166    H    0.10159005    0.92440997    0.68557941    0.13250000
opls_146-167    H    0.14180001    0.88471001    0.68575945    0.13190000
opls_547-168    H    0.35855001    0.52587010    0.00000000    0.12820000
opls_547-169    H    0.46356990    0.40097993    0.00000000    0.10590000
opls_526-170    H    0.81658994    0.74170009    0.00000000    0.12020000
opls_524-171    H    0.71954014    0.79280002    0.00000000    0.11600000
opls_525-172    H    0.85677001    0.78033999    0.00000000    0.11650000
opls_144-173    H    0.86843001    0.82817002    0.00000000    0.09910000
opls_547-174    H    0.85855001    0.02587010    0.00000000    0.12820000
opls_547-175    H    0.96356990    0.90097993    0.00000000    0.10590000
opls_526-176    H    0.31658994    0.24170009    0.00000000    0.12030000
opls_524-177    H    0.21954014    0.29280002    0.00000000    0.11600000
opls_525-178    H    0.35677001    0.28033999    0.00000000    0.11650000
opls_144-179    H    0.36843001    0.32817002    0.00000000    0.09910000
opls_547-180    H    0.64144999    0.47412990    0.00000000    0.12820000
opls_547-181    H    0.53643010    0.59902007    0.00000000    0.10590000
opls_526-182    H    0.18341006    0.25829991    0.00000000    0.12020000
opls_524-183    H    0.28045986    0.20719998    0.00000000    0.11600000
opls_525-184    H    0.14322999    0.21966001    0.00000000    0.11650000
opls_144-185    H    0.13156999    0.17182998    0.00000000    0.09910000
opls_547-186    H    0.14144999    0.97412990    0.00000000    0.12820000
opls_547-187    H    0.03643010    0.09902007    0.00000000    0.10590000
opls_526-188    H    0.68341006    0.75829991    0.00000000    0.12020000
opls_524-189    H    0.78045986    0.70719998    0.00000000    0.11600000
opls_525-190    H    0.64322999    0.71966001    0.00000000    0.11650000
opls_144-191    H    0.63156999    0.67182998    0.00000000    0.09910000
opls_547-192    H    0.64144999    0.52587010    0.00000000    0.12820000
opls_547-193    H    0.53643010    0.40097993    0.00000000    0.10590000
opls_526-194    H    0.18341006    0.74170009    0.00000000    0.12020000
opls_524-195    H    0.28045986    0.79280002    0.00000000    0.11600000
opls_525-196    H    0.14322999    0.78033999    0.00000000    0.11650000
opls_144-197    H    0.13156999    0.82817002    0.00000000    0.09910000
opls_547-198    H    0.14144999    0.02587010    0.00000000    0.12830000
opls_547-199    H    0.03643010    0.90097993    0.00000000    0.10590000
opls_526-200    H    0.68341006    0.24170009    0.00000000    0.12020000
opls_524-201    H    0.78045986    0.29280002    0.00000000    0.11600000
opls_525-202    H    0.64322999    0.28033999    0.00000000    0.11650000
opls_144-203    H    0.63156999    0.32817002    0.00000000    0.09910000
opls_547-204    H    0.35855001    0.47412990    0.00000000    0.12820000
opls_547-205    H    0.46356990    0.59902007    0.00000000    0.10590000
opls_526-206    H    0.81658994    0.25829991    0.00000000    0.12020000
opls_524-207    H    0.71954014    0.20719998    0.00000000    0.11600000
opls_525-208    H    0.85677001    0.21966001    0.00000000    0.11650000
opls_144-209    H    0.86843001    0.17182998    0.00000000    0.09910000
opls_547-210    H    0.85855001    0.97412990    0.00000000    0.12820000
opls_547-211    H    0.96356990    0.09902007    0.00000000    0.10590000
opls_526-212    H    0.31658994    0.75829991    0.00000000    0.12020000
opls_524-213    H    0.21954014    0.70719998    0.00000000    0.11600000
opls_525-214    H    0.35677001    0.71966001    0.00000000    0.11650000
opls_144-215    H    0.36843001    0.67182998    0.00000000    0.09910000
opls_750-216    N    0.32904999    0.64209995    0.00000000    -0.21990000
opls_520-217    N    0.77314010    0.81068994    0.00000000    -0.29490000
opls_750-218    N    0.82904999    0.14209995    0.00000000    -0.21990000
opls_520-219    N    0.27314010    0.31068994    0.00000000    -0.29480000
opls_750-220    N    0.67095001    0.35790005    0.00000000    -0.21990000
opls_520-221    N    0.22685990    0.18931006    0.00000000    -0.29490000
opls_750-222    N    0.17095001    0.85790005    0.00000000    -0.21990000
opls_520-223    N    0.72685990    0.68931006    0.00000000    -0.29490000
opls_750-224    N    0.67095001    0.64209995    0.00000000    -0.21990000
opls_520-225    N    0.22685990    0.81068994    0.00000000    -0.29490000
opls_750-226    N    0.17095001    0.14209995    0.00000000    -0.21990000
opls_520-227    N    0.72685990    0.31068994    0.00000000    -0.29490000
opls_750-228    N    0.32904999    0.35790005    0.00000000    -0.21990000
opls_520-229    N    0.77314010    0.18931006    0.00000000    -0.29490000
opls_750-230    N    0.82904999    0.85790005    0.00000000    -0.21990000
opls_520-231    N    0.27314010    0.68931006    0.00000000    -0.29490000
opls_542-232    N    0.44404988    0.50000000    0.00000000    -0.35300000
opls_542-233    N    0.94404988    0.00000000    0.00000000    -0.35290000
opls_542-234    N    0.55595012    0.50000000    0.00000000    -0.35300000
opls_542-235    N    0.05595012    0.00000000    0.00000000    -0.35300000
opls_542-236    N    0.50000000    0.46102004    0.00000000    -0.35750000
opls_542-237    N    0.00000000    0.96102004    0.00000000    -0.35760000
opls_542-238    N    0.50000000    0.53897996    0.00000000    -0.35760000
opls_542-239    N    0.00000000    0.03897996    0.00000000    -0.35760000
F2_Co4+2-240    Co    0.50000000    0.50000000    0.00000000    0.72850000
F2_Co4+2-241    Co    0.00000000    0.00000000    0.00000000    0.72840000
