#======================================================================
# Crystal Data Generated By AuToFF
#----------------------------------------------------------------------

data_AuToFF_phase_1

_cell_length_a                         29.1500
_cell_length_b                         29.1500
_cell_length_c                         16.5600
_cell_angle_alpha                      90.00
_cell_angle_beta                       90.00
_cell_angle_gamma                      120.00
_symmetry_space_group_name_H-M_alt     'P 1'
_symmetry_space_group_IT_number        1

loop_
_space_group_symop_operation_xyz
   'x, y, z'

loop_
   _atom_site_label
   _atom_site_type_symbol
   _atom_site_fract_x
   _atom_site_fract_y
   _atom_site_fract_z
   _atom_site_charge
opls_700-0    C    0.34575985    0.60608985    0.46025000    0.04650000
opls_145-1    C    0.34133978    0.56054988    0.42237983    -0.24460000
opls_166-2    C    0.38705990    0.56486010    0.38644988    0.14700000
opls_145-3    C    0.44565000    0.47098988    0.26807005    -0.08140000
opls_145-4    C    0.47076984    0.44588000    0.23114976    -0.08140000
opls_700-5    C    0.60597996    0.34581994    0.03976027    0.04650000
opls_145-6    C    0.56040008    0.34144991    0.07739976    -0.24460000
opls_166-7    C    0.56469989    0.38722002    0.11314010    0.14710000
opls_700-8    C    0.39391007    0.73966989    0.46025000    0.04650000
opls_145-9    C    0.43944984    0.78078990    0.42237983    -0.24460000
opls_166-10    C    0.43514008    0.82219988    0.38644988    0.14700000
opls_145-11    C    0.52900992    0.97465997    0.26807005    -0.08140000
opls_145-12    C    0.55412015    0.02489004    0.23114976    -0.08140000
opls_700-13    C    0.65417992    0.26016018    0.03976027    0.04650000
opls_145-14    C    0.65855005    0.21894984    0.07739976    -0.24460000
opls_166-15    C    0.61278016    0.17748005    0.11314010    0.14700000
opls_700-16    C    0.26032988    0.65423987    0.46025000    0.04640000
opls_145-17    C    0.21920984    0.65865982    0.42237983    -0.24460000
opls_166-18    C    0.17780002    0.61294001    0.38644988    0.14700000
opls_145-19    C    0.02534008    0.55435015    0.26807005    -0.08140000
opls_145-20    C    0.97511001    0.52922997    0.23114976    -0.08140000
opls_700-21    C    0.73983979    0.39401988    0.03976027    0.04650000
opls_145-22    C    0.78105001    0.43959985    0.07739976    -0.24460000
opls_166-23    C    0.82251995    0.43529993    0.11314010    0.14700000
opls_700-24    C    0.60609001    0.34576013    0.53975000    0.04650000
opls_145-25    C    0.56055002    0.34134018    0.57762017    -0.24450000
opls_166-26    C    0.56486001    0.38705999    0.61355012    0.14700000
opls_145-27    C    0.47098993    0.44564985    0.73192995    -0.08140000
opls_145-28    C    0.44588004    0.47077003    0.76885024    -0.08140000
opls_700-29    C    0.34581991    0.60598012    0.96023973    0.04650000
opls_145-30    C    0.34145016    0.56040015    0.92260024    -0.24460000
opls_166-31    C    0.38722002    0.56470007    0.88685990    0.14710000
opls_700-32    C    0.73967000    0.39391015    0.53975000    0.04650000
opls_145-33    C    0.78078990    0.43945012    0.57762017    -0.24460000
opls_166-34    C    0.82219979    0.43513990    0.61355012    0.14700000
opls_145-35    C    0.97466012    0.52901012    0.73192995    -0.08140000
opls_145-36    C    0.02488985    0.55412000    0.76885024    -0.08140000
opls_700-37    C    0.26016001    0.65418006    0.96023973    0.04650000
opls_145-38    C    0.21895017    0.65855009    0.92260024    -0.24460000
opls_166-39    C    0.17747987    0.61277998    0.88685990    0.14700000
opls_700-40    C    0.65424019    0.26033011    0.53975000    0.04640000
opls_145-41    C    0.65865994    0.21921010    0.57762017    -0.24460000
opls_166-42    C    0.61294020    0.17780012    0.61355012    0.14710000
opls_145-43    C    0.55434995    0.02534003    0.73192995    -0.08140000
opls_145-44    C    0.52923011    0.97510996    0.76885024    -0.08140000
opls_700-45    C    0.39402008    0.73983982    0.96023973    0.04650000
opls_145-46    C    0.43960021    0.78105016    0.92260024    -0.24460000
opls_166-47    C    0.43530011    0.82251995    0.88685990    0.14700000
opls_700-48    C    0.65424015    0.39391015    0.53975000    0.04640000
opls_145-49    C    0.65866022    0.43945012    0.57762017    -0.24460000
opls_166-50    C    0.61294010    0.43513990    0.61355012    0.14700000
opls_145-51    C    0.55435000    0.52901012    0.73192995    -0.08140000
opls_145-52    C    0.52923016    0.55412000    0.76885024    -0.08130000
opls_700-53    C    0.39402004    0.65418006    0.96023973    0.04650000
opls_145-54    C    0.43959992    0.65855009    0.92260024    -0.24460000
opls_166-55    C    0.43530011    0.61277998    0.88685990    0.14700000
opls_700-56    C    0.60608993    0.26033011    0.53975000    0.04640000
opls_145-57    C    0.56055016    0.21921010    0.57762017    -0.24460000
opls_166-58    C    0.56485992    0.17780012    0.61355012    0.14700000
opls_145-59    C    0.47099008    0.02534003    0.73192995    -0.08140000
opls_145-60    C    0.44587985    0.97510996    0.76885024    -0.08140000
opls_700-61    C    0.34581974    0.73983982    0.96023973    0.04650000
opls_145-62    C    0.34144995    0.78105016    0.92260024    -0.24460000
opls_166-63    C    0.38721984    0.82251995    0.88685990    0.14700000
opls_700-64    C    0.73967012    0.34576013    0.53975000    0.04650000
opls_145-65    C    0.78079016    0.34134018    0.57762017    -0.24460000
opls_166-66    C    0.82219998    0.38705999    0.61355012    0.14700000
opls_145-67    C    0.97465992    0.44564985    0.73192995    -0.08140000
opls_145-68    C    0.02488999    0.47077003    0.76885024    -0.08140000
opls_700-69    C    0.26016021    0.60598012    0.96023973    0.04650000
opls_145-70    C    0.21894999    0.56040015    0.92260024    -0.24460000
opls_166-71    C    0.17748005    0.56470007    0.88685990    0.14700000
opls_700-72    C    0.39390999    0.65423987    0.46025000    0.04640000
opls_145-73    C    0.43944998    0.65865982    0.42237983    -0.24460000
opls_166-74    C    0.43513999    0.61294001    0.38644988    0.14700000
opls_145-75    C    0.52901007    0.55435015    0.26807005    -0.08140000
opls_145-76    C    0.55411996    0.52922997    0.23114976    -0.08140000
opls_700-77    C    0.65418009    0.39401988    0.03976027    0.04650000
opls_145-78    C    0.65854984    0.43959985    0.07739976    -0.24460000
opls_166-79    C    0.61277998    0.43529993    0.11314010    0.14700000
opls_700-80    C    0.26033000    0.60608985    0.46025000    0.04640000
opls_145-81    C    0.21921010    0.56054988    0.42237983    -0.24460000
opls_166-82    C    0.17780021    0.56486010    0.38644988    0.14700000
opls_145-83    C    0.02533988    0.47098988    0.26807005    -0.08140000
opls_145-84    C    0.97511015    0.44588000    0.23114976    -0.08140000
opls_700-85    C    0.73983999    0.34581994    0.03976027    0.04650000
opls_145-86    C    0.78104983    0.34144991    0.07739976    -0.24460000
opls_166-87    C    0.82252013    0.38722002    0.11314010    0.14700000
opls_700-88    C    0.34575981    0.73966989    0.46025000    0.04650000
opls_145-89    C    0.34134006    0.78078990    0.42237983    -0.24460000
opls_166-90    C    0.38705980    0.82219988    0.38644988    0.14700000
opls_145-91    C    0.44565005    0.97465997    0.26807005    -0.08140000
opls_145-92    C    0.47076989    0.02489004    0.23114976    -0.08140000
opls_700-93    C    0.60597992    0.26016018    0.03976027    0.04650000
opls_145-94    C    0.56039979    0.21894984    0.07739976    -0.24460000
opls_166-95    C    0.56469989    0.17748005    0.11314010    0.14700000
opls_145-96    C    0.47441009    0.52558999    0.28710990    -0.28530000
opls_145-97    C    0.52536982    0.47462986    0.21212983    -0.28530000
opls_145-98    C    0.47441001    0.94882003    0.28710990    -0.28530000
opls_145-99    C    0.52536994    0.05073988    0.21212983    -0.28530000
opls_145-100    C    0.05117990    0.52558999    0.28710990    -0.28530000
opls_145-101    C    0.94926004    0.47462986    0.21212983    -0.28530000
opls_145-102    C    0.52558991    0.47441001    0.71289010    -0.28530000
opls_145-103    C    0.47463018    0.52537014    0.78787017    -0.28530000
opls_145-104    C    0.94882010    0.47441001    0.71289010    -0.28530000
opls_145-105    C    0.05073996    0.52537014    0.78787017    -0.28530000
opls_145-106    C    0.52558999    0.05117997    0.71289010    -0.28530000
opls_145-107    C    0.47463006    0.94926012    0.78787017    -0.28530000
opls_701-108    C    0.69540009    0.39080019    0.99310990    -0.09440000
opls_701-109    C    0.60920022    0.30460011    0.99310990    -0.09440000
opls_701-110    C    0.69539988    0.30460011    0.99310990    -0.09440000
opls_701-111    C    0.39079978    0.69539989    0.00689010    -0.09440000
opls_701-112    C    0.30460011    0.60920021    0.00689010    -0.09440000
opls_701-113    C    0.30460012    0.69539989    0.00689010    -0.09440000
opls_701-114    C    0.30466983    0.60934995    0.50717029    -0.09060000
opls_701-115    C    0.39064999    0.69531988    0.50717029    -0.09060000
opls_701-116    C    0.30466989    0.69531988    0.50717029    -0.09060000
opls_701-117    C    0.60935001    0.30466982    0.49282971    -0.09060000
opls_701-118    C    0.69531988    0.39065005    0.49282971    -0.09060000
opls_701-119    C    0.69531982    0.30466982    0.49282971    -0.09060000
opls_139-120    C    0.66667023    0.33333016    0.95751993    0.13920000
opls_135-121    C    0.66667023    0.33333016    0.86317029    -0.49870000
opls_139-122    C    0.66667023    0.33333016    0.45557005    0.13970000
opls_135-123    C    0.66667023    0.33333016    0.36003019    -0.50600000
opls_139-124    C    0.33332977    0.66666984    0.04248007    0.13920000
opls_135-125    C    0.33332977    0.66666984    0.13682971    -0.49870000
opls_139-126    C    0.33332977    0.66666984    0.54442995    0.13970000
opls_135-127    C    0.33332977    0.66666984    0.63996981    -0.50610000
opls_167-128    O    0.47367992    0.60716017    0.35076993    -0.39070000
opls_167-129    O    0.52614003    0.39302997    0.14866002    -0.39540000
opls_167-130    O    0.39284019    0.86652018    0.35076993    -0.39080000
opls_167-131    O    0.60697001    0.13310984    0.14866002    -0.39540000
opls_167-132    O    0.13348009    0.52632004    0.35076993    -0.39080000
opls_167-133    O    0.86688996    0.47386019    0.14866002    -0.39550000
opls_167-134    O    0.60716005    0.47367996    0.64923007    -0.39070000
opls_167-135    O    0.39302996    0.52614020    0.85133998    -0.39550000
opls_167-136    O    0.86652008    0.39283983    0.64923007    -0.39080000
opls_167-137    O    0.13311006    0.60697003    0.85133998    -0.39550000
opls_167-138    O    0.52632001    0.13347982    0.64923007    -0.39080000
opls_167-139    O    0.47386017    0.86689016    0.85133998    -0.39550000
opls_167-140    O    0.52632008    0.39283983    0.64923007    -0.39080000
opls_167-141    O    0.47385997    0.60697003    0.85133998    -0.39540000
opls_167-142    O    0.60715981    0.13347982    0.64923007    -0.39070000
opls_167-143    O    0.39302999    0.86689016    0.85133998    -0.39550000
opls_167-144    O    0.86651991    0.47367996    0.64923007    -0.39060000
opls_167-145    O    0.13311024    0.52614020    0.85133998    -0.39550000
opls_167-146    O    0.39283995    0.52632004    0.35076993    -0.39080000
opls_167-147    O    0.60697023    0.47386019    0.14866002    -0.39540000
opls_167-148    O    0.13348026    0.60716017    0.35076993    -0.39080000
opls_167-149    O    0.86688994    0.39302997    0.14866002    -0.39550000
opls_167-150    O    0.47367999    0.86652018    0.35076993    -0.39080000
opls_167-151    O    0.52613983    0.13310984    0.14866002    -0.39540000
opls_146-152    H    0.30660001    0.52523981    0.42258998    0.21300000
opls_146-153    H    0.40609998    0.44898006    0.28103986    0.21300000
opls_146-154    H    0.44875976    0.40632982    0.21817995    0.21300000
opls_146-155    H    0.52510004    0.30670986    0.07719022    0.21300000
opls_146-156    H    0.47475989    0.78135992    0.42258998    0.21300000
opls_146-157    H    0.55102004    0.95712001    0.28103986    0.21300000
opls_146-158    H    0.59366989    0.04243000    0.21817995    0.21310000
opls_146-159    H    0.69329009    0.21839012    0.07719022    0.21300000
opls_146-160    H    0.21863990    0.69339987    0.42258998    0.21310000
opls_146-161    H    0.04287998    0.59389993    0.28103986    0.21300000
opls_146-162    H    0.95757001    0.55124018    0.21817995    0.21300000
opls_146-163    H    0.78160987    0.47490002    0.07719022    0.21300000
opls_146-164    H    0.52524003    0.30660013    0.57741002    0.21300000
opls_146-165    H    0.44898005    0.40610007    0.71896014    0.21300000
opls_146-166    H    0.40632982    0.44875982    0.78182005    0.21300000
opls_146-167    H    0.30670985    0.52509998    0.92280978    0.21300000
opls_146-168    H    0.78136020    0.47476019    0.57741002    0.21300000
opls_146-169    H    0.95711992    0.55101994    0.71896014    0.21300000
opls_146-170    H    0.04242994    0.59367018    0.78182005    0.21300000
opls_146-171    H    0.21839018    0.69329014    0.92280978    0.21300000
opls_146-172    H    0.69339997    0.21864008    0.57741002    0.21300000
opls_146-173    H    0.59390003    0.04287999    0.71896014    0.21300000
opls_146-174    H    0.55123989    0.95757000    0.78182005    0.21300000
opls_146-175    H    0.47489996    0.78160988    0.92280978    0.21310000
opls_146-176    H    0.69339999    0.47476019    0.57741002    0.21300000
opls_146-177    H    0.59390002    0.55101994    0.71896014    0.21300000
opls_146-178    H    0.55124024    0.59367018    0.78182005    0.21300000
opls_146-179    H    0.47489996    0.69329014    0.92280978    0.21300000
opls_146-180    H    0.52524011    0.21864008    0.57741002    0.21300000
opls_146-181    H    0.44897996    0.04287999    0.71896014    0.21300000
opls_146-182    H    0.40633011    0.95757000    0.78182005    0.21300000
opls_146-183    H    0.30670991    0.78160988    0.92280978    0.21300000
opls_146-184    H    0.78136010    0.30660013    0.57741002    0.21300000
opls_146-185    H    0.95712002    0.40610007    0.71896014    0.21300000
opls_146-186    H    0.04242999    0.44875982    0.78182005    0.21300000
opls_146-187    H    0.21839013    0.52509998    0.92280978    0.21300000
opls_146-188    H    0.47475997    0.69339987    0.42258998    0.21300000
opls_146-189    H    0.55101995    0.59389993    0.28103986    0.21310000
opls_146-190    H    0.59367018    0.55124018    0.21817995    0.21310000
opls_146-191    H    0.69329015    0.47490002    0.07719022    0.21300000
opls_146-192    H    0.21863980    0.52523981    0.42258998    0.21310000
opls_146-193    H    0.04288008    0.44898006    0.28103986    0.21300000
opls_146-194    H    0.95757006    0.40632982    0.21817995    0.21310000
opls_146-195    H    0.78160982    0.30670986    0.07719022    0.21300000
opls_146-196    H    0.30660003    0.78135992    0.42258998    0.21300000
opls_146-197    H    0.40609997    0.95712001    0.28103986    0.21300000
opls_146-198    H    0.44876011    0.04243000    0.21817995    0.21300000
opls_146-199    H    0.52510004    0.21839012    0.07719022    0.21300000
opls_140-200    H    0.35360009    0.64640019    0.15992029    0.11020000
opls_140-201    H    0.35360001    0.70720002    0.15992029    0.11260000
opls_140-202    H    0.29280009    0.64640019    0.15992029    0.11260000
opls_140-203    H    0.64639991    0.35359981    0.84007971    0.11030000
opls_140-204    H    0.70719991    0.35359981    0.84007971    0.11260000
opls_140-205    H    0.64639999    0.29279998    0.84007971    0.11260000
opls_702-206    H    0.71053994    0.42109018    0.94583998    0.09260000
opls_702-207    H    0.57890988    0.28944996    0.94583998    0.09260000
opls_702-208    H    0.71054007    0.28944996    0.94583998    0.09260000
opls_702-209    H    0.42108997    0.71054014    0.05416002    0.09260000
opls_702-210    H    0.28944976    0.57890982    0.05416002    0.09260000
opls_702-211    H    0.28945017    0.71054014    0.05416002    0.09260000
opls_702-212    H    0.28907008    0.57814015    0.55289010    0.09420000
opls_702-213    H    0.42185982    0.71092992    0.55289010    0.09420000
opls_702-214    H    0.28907011    0.71092992    0.55289010    0.09420000
opls_702-215    H    0.57814018    0.28907008    0.44710990    0.09420000
opls_702-216    H    0.71092992    0.42185985    0.44710990    0.09420000
opls_702-217    H    0.71092989    0.28907008    0.44710990    0.09420000
opls_140-218    H    0.37326017    0.68663011    0.66500000    0.10180000
opls_140-219    H    0.31336994    0.68663011    0.66500000    0.09870000
opls_140-220    H    0.31337009    0.62674017    0.66500000    0.10180000
opls_140-221    H    0.68662991    0.37325983    0.33500000    0.10190000
opls_140-222    H    0.68663006    0.31336989    0.33500000    0.09870000
opls_140-223    H    0.62673983    0.31336989    0.33500000    0.10180000
MOF2_B_2-224    B    0.55187014    0.44812998    0.17205978    0.49820000
MOF2_B_2-225    B    0.44793006    0.55207006    0.32728019    0.49830000
MOF2_B_2-226    B    0.55187002    0.10374004    0.17205978    0.49820000
MOF2_B_2-227    B    0.44792994    0.89585987    0.32728019    0.49820000
MOF2_B_2-228    B    0.89625984    0.44812998    0.17205978    0.49830000
MOF2_B_2-229    B    0.10414001    0.55207006    0.32728019    0.49820000
MOF2_B_2-230    B    0.44812986    0.55187002    0.82794022    0.49830000
MOF2_B_2-231    B    0.55206994    0.44792994    0.67271981    0.49820000
MOF2_B_2-232    B    0.10374016    0.55187002    0.82794022    0.49830000
MOF2_B_2-233    B    0.89585999    0.44792994    0.67271981    0.49830000
MOF2_B_2-234    B    0.44812998    0.89625996    0.82794022    0.49820000
MOF2_B_2-235    B    0.55207006    0.10414013    0.67271981    0.49820000
