#======================================================================
# Crystal Data Generated By AuToFF
#----------------------------------------------------------------------

data_AuToFF_phase_1

_cell_length_a                         28.7317
_cell_length_b                         28.6937
_cell_length_c                         6.4837
_cell_angle_alpha                      87.35
_cell_angle_beta                       92.42
_cell_angle_gamma                      119.21
_symmetry_space_group_name_H-M_alt     'P 1'
_symmetry_space_group_IT_number        1

loop_
_space_group_symop_operation_xyz
   'x, y, z'

loop_
   _atom_site_label
   _atom_site_type_symbol
   _atom_site_fract_x
   _atom_site_fract_y
   _atom_site_fract_z
   _atom_site_charge
opls_142-0    C    0.38980020    0.79189001    0.02696008    -0.24350000
opls_507-1    C    0.45547002    0.93326996    0.02300958    0.13330000
opls_572-2    C    0.42350029    0.84859024    0.02571995    0.44940000
opls_145-3    C    0.32086025    0.67156999    0.03424024    -0.16670000
opls_700-4    C    0.29165026    0.61569027    0.03731045    0.09680000
opls_700-5    C    0.35350030    0.66336002    0.53482015    0.10000000
opls_145-6    C    0.38373044    0.71920019    0.53301015    -0.17040000
opls_142-7    C    0.29593037    0.63973032    0.53391052    -0.12440000
opls_507-8    C    0.52044035    0.98022006    0.52771913    0.12190000
opls_145-9    C    0.31961001    0.58682012    0.03923937    -0.16590000
opls_700-10    C    0.37705032    0.69894006    0.03352056    0.09950000
opls_145-11    C    0.63523015    0.56815000    0.53920925    -0.24100000
opls_142-12    C    0.25930013    0.58721018    0.53732975    -0.24190000
opls_575-13    C    0.62112038    0.51467034    0.53781932    0.17550000
opls_572-14    C    0.56118005    0.39487001    0.03251981    0.45030000
opls_142-15    C    0.45398028    0.83901007    0.53048047    -0.23770000
opls_142-16    C    0.40862017    0.75677006    0.03072988    -0.12490000
opls_572-17    C    0.62066018    0.43848014    0.53478000    0.44990000
opls_575-18    C    0.49915016    0.92287022    0.02778014    0.17660000
opls_142-19    C    0.58301030    0.35964017    0.03053993    -0.23700000
opls_572-20    C    0.48806044    0.89554017    0.52998009    0.44920000
opls_142-21    C    0.64287029    0.40356024    0.53288969    -0.23990000
opls_142-22    C    0.63572027    0.37502008    0.02936929    -0.12550000
opls_145-23    C    0.46374024    0.98566032    0.02037951    -0.24190000
opls_145-24    C    0.62598012    0.28326022    0.02546976    -0.15970000
opls_142-25    C    0.69571041    0.41967025    0.53126964    -0.12280000
opls_700-26    C    0.65816027    0.33925009    0.02780021    0.10670000
opls_575-27    C    0.51710993    0.02394013    0.02294008    0.17070000
opls_145-28    C    0.52880028    0.03266006    0.52528057    -0.23990000
opls_142-29    C    0.61272983    0.19186991    0.02483966    -0.12150000
opls_145-30    C    0.68744012    0.32843028    0.52972064    -0.16260000
opls_700-31    C    0.64814996    0.24925990    0.02660950    0.09810000
opls_700-32    C    0.71876009    0.38456017    0.53012990    0.09830000
opls_572-33    C    0.59320985    0.09801991    0.02559949    0.44910000
opls_575-34    C    0.58213018    0.07081028    0.52802955    0.19390000
opls_145-35    C    0.71372012    0.36087020    0.02982025    -0.15970000
opls_142-36    C    0.62837013    0.15431996    0.02647051    -0.23760000
opls_142-37    C    0.67638026    0.23814008    0.53048974    -0.12490000
opls_507-38    C    0.56063988    0.01336996    0.02786044    0.12720000
opls_700-39    C    0.71084004    0.29565012    0.53059939    0.10000000
opls_572-40    C    0.65808017    0.14481013    0.53116926    0.44930000
opls_145-41    C    0.70407004    0.27237992    0.02980017    -0.17040000
opls_145-42    C    0.77438022    0.40733027    0.53025036    -0.16500000
opls_145-43    C    0.55241036    0.96102017    0.03045962    -0.24190000
opls_700-44    C    0.73735012    0.32783019    0.03095073    0.09900000
opls_142-45    C    0.69286002    0.20122997    0.53183025    -0.23770000
opls_507-46    C    0.62566017    0.06019013    0.53233063    0.12660000
opls_142-47    C    0.23401995    0.59039000    0.03803012    -0.12450000
opls_145-48    C    0.76693009    0.31985001    0.53160940    -0.16590000
opls_145-49    C    0.61732993    0.00783995    0.53435066    -0.24110000
opls_145-50    C    0.38044045    0.63340026    0.53785021    -0.16620000
opls_700-51    C    0.79917036    0.37541023    0.53116926    0.09710000
opls_142-52    C    0.79455998    0.34808013    0.03327037    -0.12450000
opls_142-53    C    0.83304999    0.39987002    0.03335995    -0.23630000
opls_142-54    C    0.85652036    0.39740021    0.53233063    -0.13020000
opls_700-55    C    0.43981044    0.74565014    0.53478000    0.09980000
opls_142-56    C    0.89351028    0.44987029    0.53086965    -0.24240000
opls_572-57    C    0.88862019    0.41554018    0.03565025    0.44920000
opls_142-58    C    0.19887994    0.53731992    0.04173044    -0.26600000
opls_700-59    C    0.37545009    0.61285008    0.03807028    0.09990000
opls_142-60    C    0.47217047    0.80340039    0.53360010    -0.13180000
opls_572-61    C    0.94939026    0.46698004    0.53292057    0.44950000
opls_145-62    C    0.40370024    0.66915024    0.03567959    -0.16540000
opls_575-63    C    0.56398025    0.96971007    0.53191982    0.18910000
opls_572-64    C    0.20339034    0.57019016    0.53654985    0.44550000
opls_700-65    C    0.43632017    0.65843000    0.53888957    0.09850000
opls_145-66    C    0.46538038    0.71466033    0.53774982    -0.16610000
opls_142-67    C    0.40172012    0.58068020    0.03887026    -0.12420000
opls_572-68    C    0.14267004    0.51883024    0.04125940    0.44770000
opls_575-69    C    0.11891014    0.51091997    0.53945017    0.15330000
opls_142-70    C    0.46205032    0.62560013    0.54016058    -0.12020000
opls_507-71    C    0.12609018    0.56369022    0.53296999    0.11340000
opls_142-72    C    0.45507016    0.59924010    0.03809035    -0.23610000
opls_145-73    C    0.07038003    0.46445007    0.54237984    -0.24020000
opls_575-74    C    0.05825998    0.45909014    0.04337056    0.16870000
opls_507-75    C    0.06526003    0.51174023    0.03714983    0.13110000
opls_142-76    C    0.51532029    0.64348026    0.54098064    -0.23630000
opls_145-77    C    0.00955033    0.41254018    0.04554040    -0.24150000
opls_572-78    C    0.47861000    0.56542001    0.03769036    0.44940000
opls_145-79    C    0.08245031    0.57286034    0.52876004    -0.24010000
opls_507-80    C    0.02667016    0.47364030    0.53793978    0.12680000
opls_575-81    C    0.03383005    0.52635003    0.53149049    0.17620000
opls_572-82    C    0.53843023    0.60929010    0.54046946    0.44960000
opls_145-83    C    0.02159030    0.52092020    0.03258931    -0.23860000
opls_575-84    C    0.47869030    0.48952018    0.03558075    0.18720000
opls_507-85    C    0.96583996    0.42169000    0.04085015    0.12940000
opls_145-86    C    0.46464014    0.43610023    0.03458000    -0.23960000
opls_575-87    C    0.97313003    0.47449006    0.03485953    0.18710000
opls_507-88    C    0.53169015    0.53304995    0.03678073    0.13110000
opls_575-89    C    0.53806001    0.53312998    0.53825020    0.18680000
opls_145-90    C    0.52395011    0.47976004    0.53707956    -0.23970000
opls_507-91    C    0.59111014    0.57665999    0.53941929    0.10930000
opls_507-92    C    0.50876016    0.42770988    0.03439004    0.12750000
opls_145-93    C    0.57586002    0.52460990    0.03651046    -0.23980000
opls_575-94    C    0.56185011    0.47120998    0.03523945    0.15330000
opls_507-95    C    0.56803032    0.47128019    0.53673980    0.11410000
opls_144-96    H    0.41158025    0.82669031    0.52838013    0.10860000
opls_146-97    H    0.36275046    0.74228028    0.53048974    0.10940000
opls_144-98    H    0.27046022    0.55589008    0.54094049    0.10940000
opls_146-99    H    0.29777019    0.54321994    0.04099068    0.11130000
opls_144-100    H    0.34725006    0.77901020    0.02500027    0.10930000
opls_146-101    H    0.67615036    0.60078003    0.54000924    0.11290000
opls_144-102    H    0.55253021    0.31767998    0.02954072    0.10900000
opls_146-103    H    0.29901001    0.69379008    0.03266035    0.11370000
opls_144-104    H    0.21126996    0.50692001    0.04499060    0.10930000
opls_144-105    H    0.61289010    0.36145007    0.53244954    0.10970000
opls_146-106    H    0.43101001    0.99458002    0.01685989    0.11370000
opls_146-107    H    0.58262007    0.26527017    0.02325050    0.11370000
opls_144-108    H    0.66436004    0.41767018    0.03079012    0.11090000
opls_146-109    H    0.49616992    0.04172994    0.52185979    0.11330000
opls_144-110    H    0.57000024    0.17862016    0.02249067    0.04810000
opls_146-111    H    0.64407004    0.30962996    0.52899015    0.11000000
opls_144-112    H    0.72388032    0.46252025    0.53145033    0.13200000
opls_144-113    H    0.63355013    0.22418002    0.52918938    0.11110000
opls_144-114    H    0.28056008    0.66793003    0.53042024    0.11260000
opls_146-115    H    0.73871990    0.40416000    0.03138933    0.10930000
opls_146-116    H    0.79854029    0.45078026    0.53076000    0.11090000
opls_144-117    H    0.67033992    0.16489996    0.02921949    0.10860000
opls_146-118    H    0.35781032    0.58988015    0.53884015    0.10920000
opls_146-119    H    0.72255994    0.24700003    0.03117003    0.10930000
opls_146-120    H    0.58509023    0.95203001    0.03415993    0.11390000
opls_144-121    H    0.73501023    0.21248992    0.53353060    0.10930000
opls_144-122    H    0.82353030    0.43231013    0.03146964    0.10930000
opls_146-123    H    0.78641043    0.29536029    0.53248043    0.11370000
opls_146-124    H    0.64999006    0.99881004    0.53760928    0.11330000
opls_144-125    H    0.88273009    0.48143018    0.52791064    0.10880000
opls_144-126    H    0.80755004    0.31801995    0.03485953    0.11260000
opls_144-127    H    0.87119021    0.36867011    0.53469042    0.09680000
opls_144-128    H    0.45180034    0.77287008    0.03194067    0.10970000
opls_144-129    H    0.21710002    0.61727012    0.03516995    0.13200000
opls_144-130    H    0.37541021    0.53743995    0.03954979    0.04810000
opls_146-131    H    0.44714006    0.69035999    0.03464950    0.10950000
opls_144-132    H    0.51531026    0.81898008    0.53545025    0.11020000
opls_144-133    H    0.43529033    0.58250022    0.53960924    0.10970000
opls_146-134    H    0.50889046    0.73517022    0.53865019    0.11050000
opls_146-135    H    0.06589026    0.42453029    0.54722917    0.11400000
opls_144-136    H    0.48379017    0.64174009    0.03777994    0.11140000
opls_146-137    H    0.00503022    0.37258997    0.04992950    0.11280000
opls_144-138    H    0.54453027    0.68587019    0.54191036    0.10900000
opls_146-139    H    0.08699009    0.61281011    0.52400956    0.11330000
opls_146-140    H    0.42372990    0.40346999    0.03407036    0.11270000
opls_146-141    H    0.02608995    0.56082997    0.02790060    0.11500000
opls_146-142    H    0.48309027    0.44715030    0.53650043    0.11490000
opls_146-143    H    0.61672008    0.55724008    0.03687030    0.11480000
opls_573-144    N    0.47339025    0.93235030    0.52667051    -0.35540000
opls_573-145    N    0.40855032    0.88517005    0.02214010    -0.37360000
opls_573-146    N    0.56970034    0.42402004    0.53501937    -0.37400000
opls_573-147    N    0.60770997    0.06108983    0.02914073    -0.35910000
opls_573-148    N    0.67270019    0.10800018    0.53387963    -0.35500000
opls_573-149    N    0.91177990    0.38586993    0.04097987    -0.35540000
opls_573-150    N    0.97292035    0.43762032    0.53863011    -0.35030000
opls_573-151    N    0.18000032    0.59964036    0.53149049    -0.35890000
opls_573-152    N    0.11886004    0.54791013    0.03611974    -0.34500000
opls_573-153    N    0.52966027    0.58019999    0.03807028    -0.37820000
opls_573-154    N    0.58937034    0.62384000    0.54101925    -0.35490000
opls_573-155    N    0.51029012    0.38049991    0.03279008    -0.35060000
opls_180-156    O    0.59556004    0.44984023    0.03415993    -0.15510000
opls_180-157    O    0.65486016    0.49337003    0.53642938    -0.15240000
opls_180-158    O    0.53827005    0.07854998    0.02130922    -0.15510000
opls_180-159    O    0.47846010    0.86847007    0.02919015    -0.15740000
opls_180-160    O    0.60318018    0.12534012    0.52751991    -0.15520000
opls_180-161    O    0.92342005    0.47037989    0.03173064    -0.15700000
opls_180-162    O    0.98399028    0.52192018    0.52823959    -0.15280000
opls_180-163    O    0.54302032    0.91523022    0.53351979    -0.15580000
opls_180-164    O    0.16884027    0.51532000    0.54168951    -0.15430000
opls_180-165    O    0.10834021    0.46384992    0.04628942    -0.15530000
opls_180-166    O    0.44473026    0.51045019    0.03626028    -0.15770000
opls_180-167    O    0.50427028    0.55429014    0.53875057    -0.15290000
