#======================================================================
# Crystal Data Generated By AuToFF
#----------------------------------------------------------------------

data_AuToFF_phase_1

_cell_length_a                         33.6198
_cell_length_b                         33.6198
_cell_length_c                         3.0314
_cell_angle_alpha                      90.00
_cell_angle_beta                       90.00
_cell_angle_gamma                      120.00
_symmetry_space_group_name_H-M_alt     'P 1'
_symmetry_space_group_IT_number        1

loop_
_space_group_symop_operation_xyz
   'x, y, z'

loop_
   _atom_site_label
   _atom_site_type_symbol
   _atom_site_fract_x
   _atom_site_fract_y
   _atom_site_fract_z
   _atom_site_charge
opls_702-0    H    0.49700010    0.66141999    0.79859141    0.13230000
opls_702-1    H    0.33857004    0.83556994    0.79859141    0.13230000
opls_702-2    H    0.16442994    0.50300011    0.79859141    0.13230000
opls_702-3    H    0.50299998    0.33857004    0.79859141    0.13230000
opls_702-4    H    0.66141992    0.16442010    0.79859141    0.13230000
opls_702-5    H    0.83557006    0.49699989    0.79859141    0.13230000
opls_702-6    H    0.50299998    0.33857004    0.20140859    0.13230000
opls_702-7    H    0.66141992    0.16442010    0.20140859    0.13230000
opls_702-8    H    0.83557006    0.49699989    0.20140859    0.13230000
opls_702-9    H    0.49700010    0.66141999    0.20140859    0.13230000
opls_702-10    H    0.33857004    0.83556994    0.20140859    0.13230000
opls_702-11    H    0.16442994    0.50300011    0.20140859    0.13230000
opls_144-12    H    0.43339994    0.65086998    0.00000000    0.09780000
opls_910-13    H    0.35010002    0.54775000    0.00000000    0.21740000
opls_146-14    H    0.36263009    0.48269004    0.00000000    0.09820000
opls_146-15    H    0.54457011    0.58708012    0.00000000    0.08150000
opls_146-16    H    0.41194995    0.44391014    0.00000000    0.08290000
opls_144-17    H    0.34912992    0.78253994    0.00000000    0.09780000
opls_910-18    H    0.45224993    0.80234994    0.00000000    0.21740000
opls_146-19    H    0.51731012    0.87993996    0.00000000    0.09820000
opls_146-20    H    0.41292017    0.95749014    0.00000000    0.08150000
opls_146-21    H    0.55609003    0.96805012    0.00000000    0.08290000
opls_144-22    H    0.21745995    0.56660004    0.00000000    0.09780000
opls_910-23    H    0.19765004    0.64990005    0.00000000    0.21740000
opls_146-24    H    0.12006008    0.63737000    0.00000000    0.09820000
opls_146-25    H    0.04250989    0.45543008    0.00000000    0.10490000
opls_146-26    H    0.03195000    0.58805005    0.00000000    0.09890000
opls_144-27    H    0.56660006    0.34913002    0.00000000    0.09780000
opls_910-28    H    0.64989998    0.45225000    0.00000000    0.21740000
opls_146-29    H    0.63736991    0.51730996    0.00000000    0.09820000
opls_146-30    H    0.45542989    0.41291988    0.00000000    0.08150000
opls_146-31    H    0.58805005    0.55608986    0.00000000    0.08290000
opls_144-32    H    0.65087008    0.21746006    0.00000000    0.09780000
opls_910-33    H    0.54775007    0.19765006    0.00000000    0.21740000
opls_146-34    H    0.48268988    0.12006004    0.00000000    0.09820000
opls_146-35    H    0.58707983    0.04250986    0.00000000    0.08150000
opls_146-36    H    0.44390997    0.03194988    0.00000000    0.08290000
opls_144-37    H    0.78252994    0.43339996    0.00000000    0.09780000
opls_910-38    H    0.80234996    0.35009995    0.00000000    0.21740000
opls_146-39    H    0.87993992    0.36263000    0.00000000    0.09820000
opls_146-40    H    0.95749011    0.54456992    0.00000000    0.10490000
opls_146-41    H    0.96805000    0.41194995    0.00000000    0.09890000
opls_702-42    H    0.54564016    0.65854010    0.00000000    0.13920000
opls_702-43    H    0.34145988    0.88710004    0.00000000    0.13920000
opls_702-44    H    0.11289995    0.45435986    0.00000000    0.13930000
opls_702-45    H    0.45435984    0.34145990    0.00000000    0.13930000
opls_702-46    H    0.65854012    0.11289996    0.00000000    0.13920000
opls_702-47    H    0.88710005    0.54564014    0.00000000    0.13920000
opls_272-48    O    0.28754996    0.56178990    0.00000000    -0.34980000
opls_272-49    O    0.43821005    0.72576007    0.00000000    -0.34980000
opls_272-50    O    0.27423999    0.71245003    0.00000000    -0.34980000
opls_272-51    O    0.71245004    0.43821010    0.00000000    -0.34970000
opls_272-52    O    0.56178995    0.27423993    0.00000000    -0.34980000
opls_272-53    O    0.72576001    0.28754997    0.00000000    -0.34960000
opls_238-54    N    0.38476986    0.57292998    0.00000000    -0.29200000
opls_238-55    N    0.42707006    0.81184004    0.00000000    -0.29200000
opls_238-56    N    0.18816009    0.61522998    0.00000000    -0.29200000
opls_238-57    N    0.61523014    0.42707002    0.00000000    -0.29200000
opls_238-58    N    0.57292994    0.18815996    0.00000000    -0.29200000
opls_238-59    N    0.81183991    0.38477002    0.00000000    -0.29190000
opls_231-60    C    0.30921996    0.60977002    0.00000000    0.16310000
opls_142-61    C    0.39846022    0.62504018    0.00000000    0.05730000
opls_916-62    C    0.42288003    0.55812005    0.00000000    0.15760000
opls_700-63    C    0.47969994    0.59232989    0.00000000    0.08580000
opls_145-64    C    0.50766996    0.56659008    0.00000000    -0.08770000
opls_700-65    C    0.48374999    0.51191011    0.00000000    0.07430000
opls_145-66    C    0.42892008    0.48087005    0.00000000    -0.10510000
opls_145-67    C    0.39964011    0.50379006    0.00000000    -0.14390000
opls_700-68    C    0.36596001    0.64284988    0.00000000    -0.08260000
opls_148-69    C    0.50784016    0.64385003    0.00000000    -0.46420000
opls_231-70    C    0.39023006    0.69945012    0.00000000    0.16310000
opls_142-71    C    0.37496012    0.77342009    0.00000000    0.05720000
opls_916-72    C    0.44188012    0.86476013    0.00000000    0.15750000
opls_700-73    C    0.40766991    0.88737000    0.00000000    0.08580000
opls_145-74    C    0.43341011    0.94108004    0.00000000    -0.08770000
opls_700-75    C    0.48808994    0.97184018    0.00000000    0.07430000
opls_145-76    C    0.51913006    0.94805019    0.00000000    -0.10510000
opls_145-77    C    0.49620993    0.89584999    0.00000000    -0.14390000
opls_700-78    C    0.35714983    0.72310995    0.00000000    -0.08260000
opls_148-79    C    0.35615016    0.86399009    0.00000000    -0.47540000
opls_231-80    C    0.30054998    0.69077986    0.00000000    0.16310000
opls_142-81    C    0.22658012    0.60154007    0.00000000    0.05720000
opls_916-82    C    0.13524002    0.57712017    0.00000000    0.15750000
opls_700-83    C    0.11263014    0.52030011    0.00000000    0.08580000
opls_145-84    C    0.05891993    0.49232989    0.00000000    -0.08760000
opls_700-85    C    0.02815995    0.51625005    0.00000000    0.07430000
opls_145-86    C    0.05195003    0.57108011    0.00000000    -0.10520000
opls_145-87    C    0.10414995    0.60035994    0.00000000    -0.14390000
opls_700-88    C    0.27689016    0.63404017    0.00000000    -0.08260000
opls_148-89    C    0.13601005    0.49214991    0.00000000    -0.47540000
opls_231-90    C    0.69078004    0.39022998    0.00000000    0.16310000
opls_142-91    C    0.60153995    0.37496016    0.00000000    0.05720000
opls_916-92    C    0.57711997    0.44187995    0.00000000    0.15750000
opls_700-93    C    0.52030006    0.40767011    0.00000000    0.08590000
opls_145-94    C    0.49233004    0.43340992    0.00000000    -0.08770000
opls_700-95    C    0.51625001    0.48808989    0.00000000    0.07430000
opls_145-96    C    0.57107992    0.51912995    0.00000000    -0.10520000
opls_145-97    C    0.60035989    0.49620994    0.00000000    -0.14390000
opls_700-98    C    0.63403999    0.35715012    0.00000000    -0.08260000
opls_148-99    C    0.49215002    0.35614997    0.00000000    -0.47540000
opls_231-100    C    0.60976994    0.30054988    0.00000000    0.16310000
opls_142-101    C    0.62503988    0.22657991    0.00000000    0.05720000
opls_916-102    C    0.55811988    0.13523987    0.00000000    0.15750000
opls_700-103    C    0.59233009    0.11263000    0.00000000    0.08580000
opls_145-104    C    0.56658989    0.05891996    0.00000000    -0.08770000
opls_700-105    C    0.51191023    0.02816016    0.00000000    0.07430000
opls_145-106    C    0.48087011    0.05195016    0.00000000    -0.10520000
opls_145-107    C    0.50379007    0.10415001    0.00000000    -0.14380000
opls_700-108    C    0.64285017    0.27689005    0.00000000    -0.08260000
opls_148-109    C    0.64384984    0.13600991    0.00000000    -0.46430000
opls_231-110    C    0.69945002    0.30922014    0.00000000    0.16320000
opls_142-111    C    0.77341988    0.39845993    0.00000000    0.05720000
opls_916-112    C    0.86476015    0.42288017    0.00000000    0.15750000
opls_700-113    C    0.88736986    0.47969989    0.00000000    0.08580000
opls_145-114    C    0.94108007    0.50767011    0.00000000    -0.08770000
opls_700-115    C    0.97184005    0.48374995    0.00000000    0.07430000
opls_145-116    C    0.94804997    0.42891989    0.00000000    -0.10520000
opls_145-117    C    0.89585005    0.39964006    0.00000000    -0.14380000
opls_700-118    C    0.72311001    0.36596017    0.00000000    -0.08260000
opls_148-119    C    0.86399002    0.50784013    0.00000000    -0.47540000
