#======================================================================
# Crystal Data Generated By AuToFF
#----------------------------------------------------------------------

data_AuToFF_phase_1

_cell_length_a                         20.3572
_cell_length_b                         20.3572
_cell_length_c                         13.2830
_cell_angle_alpha                      90.00
_cell_angle_beta                       90.00
_cell_angle_gamma                      90.00
_symmetry_space_group_name_H-M_alt     'P 1'
_symmetry_space_group_IT_number        1

loop_
_space_group_symop_operation_xyz
   'x, y, z'

loop_
   _atom_site_label
   _atom_site_type_symbol
   _atom_site_fract_x
   _atom_site_fract_y
   _atom_site_fract_z
   _atom_site_charge
opls_145-0    C    0.54380023    0.80319985    0.62339983    -0.13650000
opls_916-1    C    0.48309984    0.71699988    0.52900023    0.17690000
opls_145-2    C    0.52659993    0.77160022    0.52960024    -0.13460000
opls_142-3    C    0.51229983    0.68230012    0.34770007    0.02930000
opls_700-4    C    0.50619977    0.64639980    0.25260032    0.04840000
opls_145-5    C    0.56439982    0.62889985    0.19859971    -0.10480000
opls_145-6    C    0.56259996    0.58479997    0.11409998    -0.10510000
opls_700-7    C    0.50190006    0.55969976    0.07610028    0.06830000
opls_145-8    C    0.44330016    0.58129998    0.12569977    -0.10440000
opls_145-9    C    0.44520022    0.62550007    0.21020026    -0.10510000
opls_423-10    C    0.41419989    0.64070010    0.43459986    0.34910000
opls_701-11    C    0.50000000    0.50000000    0.00000000    0.02600000
opls_145-12    C    0.95619977    0.69680015    0.12339983    -0.13650000
opls_916-13    C    0.01690016    0.78300012    0.02900023    0.17690000
opls_145-14    C    0.97340007    0.72839978    0.02960024    -0.13460000
opls_142-15    C    0.98770017    0.81769988    0.84770007    0.02930000
opls_700-16    C    0.99380023    0.85360020    0.75260032    0.04840000
opls_145-17    C    0.93560018    0.87110015    0.69859971    -0.10480000
opls_145-18    C    0.93740004    0.91520003    0.61409998    -0.10510000
opls_700-19    C    0.99809994    0.94030024    0.57610028    0.06830000
opls_145-20    C    0.05669984    0.91870002    0.62569977    -0.10450000
opls_145-21    C    0.05479978    0.87449993    0.71020026    -0.10510000
opls_423-22    C    0.08580011    0.85929990    0.93459986    0.34910000
opls_701-23    C    0.00000000    0.00000000    0.50000000    0.02600000
opls_145-24    C    0.19680015    0.04380023    0.87339983    -0.13640000
opls_916-25    C    0.28300012    0.98309984    0.77900023    0.17690000
opls_145-26    C    0.22839978    0.02659993    0.77960024    -0.13460000
opls_142-27    C    0.31769988    0.01229983    0.59770007    0.02930000
opls_700-28    C    0.35360020    0.00619977    0.50260032    0.04840000
opls_145-29    C    0.37110015    0.06439982    0.44859971    -0.10480000
opls_145-30    C    0.41520003    0.06259996    0.36409998    -0.10510000
opls_700-31    C    0.44030024    0.00190006    0.32610028    0.06840000
opls_145-32    C    0.41870002    0.94330016    0.37569977    -0.10450000
opls_145-33    C    0.37449993    0.94520022    0.46020026    -0.10510000
opls_423-34    C    0.35929990    0.91419989    0.68459986    0.34910000
opls_701-35    C    0.50000000    0.00000000    0.25000000    0.02600000
opls_145-36    C    0.30319985    0.45619977    0.37339983    -0.13650000
opls_916-37    C    0.21699988    0.51690016    0.27900023    0.17690000
opls_145-38    C    0.27160022    0.47340007    0.27960024    -0.13460000
opls_142-39    C    0.18230012    0.48770017    0.09770007    0.02930000
opls_700-40    C    0.14639980    0.49380023    0.00260032    0.04840000
opls_145-41    C    0.12889985    0.43560018    0.94859971    -0.10470000
opls_145-42    C    0.08479997    0.43740004    0.86409998    -0.10510000
opls_700-43    C    0.05969976    0.49809994    0.82610028    0.06830000
opls_145-44    C    0.08129998    0.55669984    0.87569977    -0.10450000
opls_145-45    C    0.12550007    0.55479978    0.96020026    -0.10510000
opls_423-46    C    0.14070010    0.58580011    0.18459986    0.34910000
opls_701-47    C    0.00000000    0.50000000    0.75000000    0.02600000
opls_145-48    C    0.45619977    0.69680015    0.62660017    -0.13650000
opls_916-49    C    0.51690016    0.78300012    0.72099977    0.17700000
opls_145-50    C    0.47340007    0.72839978    0.72039976    -0.13460000
opls_142-51    C    0.48770017    0.81769988    0.90229993    0.02930000
opls_700-52    C    0.49380023    0.85360020    0.99739968    0.04840000
opls_145-53    C    0.43560018    0.87110015    0.05140029    -0.10480000
opls_145-54    C    0.43740004    0.91520003    0.13590002    -0.10510000
opls_700-55    C    0.49809994    0.94030024    0.17389972    0.06830000
opls_145-56    C    0.55669984    0.91870002    0.12430023    -0.10450000
opls_145-57    C    0.55479978    0.87449993    0.03979974    -0.10510000
opls_423-58    C    0.58580011    0.85929990    0.81540014    0.34910000
opls_145-59    C    0.04380023    0.80319985    0.12660017    -0.13650000
opls_916-60    C    0.98309984    0.71699988    0.22099977    0.17690000
opls_145-61    C    0.02659993    0.77160022    0.22039976    -0.13460000
opls_142-62    C    0.01229983    0.68230012    0.40229993    0.02930000
opls_700-63    C    0.00619977    0.64639980    0.49739968    0.04840000
opls_145-64    C    0.06439982    0.62889985    0.55140029    -0.10480000
opls_145-65    C    0.06259996    0.58479997    0.63590002    -0.10510000
opls_700-66    C    0.00190006    0.55969976    0.67389972    0.06830000
opls_145-67    C    0.94330016    0.58129998    0.62430023    -0.10450000
opls_145-68    C    0.94520022    0.62550007    0.53979974    -0.10510000
opls_423-69    C    0.91419989    0.64070010    0.31540014    0.34910000
opls_145-70    C    0.80319985    0.45619977    0.37660017    -0.13650000
opls_916-71    C    0.71699988    0.51690016    0.47099977    0.17690000
opls_145-72    C    0.77160022    0.47340007    0.47039976    -0.13460000
opls_142-73    C    0.68230012    0.48770017    0.65229993    0.02930000
opls_700-74    C    0.64639980    0.49380023    0.74739968    0.04840000
opls_145-75    C    0.62889985    0.43560018    0.80140029    -0.10480000
opls_145-76    C    0.58479997    0.43740004    0.88590002    -0.10510000
opls_700-77    C    0.55969976    0.49809994    0.92389972    0.06830000
opls_145-78    C    0.58129998    0.55669984    0.87430023    -0.10450000
opls_145-79    C    0.62550007    0.55479978    0.78979974    -0.10510000
opls_423-80    C    0.64070010    0.58580011    0.56540014    0.34910000
opls_145-81    C    0.69680015    0.04380023    0.87660017    -0.13650000
opls_916-82    C    0.78300012    0.98309984    0.97099977    0.17690000
opls_145-83    C    0.72839978    0.02659993    0.97039976    -0.13460000
opls_142-84    C    0.81769988    0.01229983    0.15229993    0.02930000
opls_700-85    C    0.85360020    0.00619977    0.24739968    0.04840000
opls_145-86    C    0.87110015    0.06439982    0.30140029    -0.10480000
opls_145-87    C    0.91520003    0.06259996    0.38590002    -0.10510000
opls_700-88    C    0.94030024    0.00190006    0.42389972    0.06830000
opls_145-89    C    0.91870002    0.94330016    0.37430023    -0.10450000
opls_145-90    C    0.87449993    0.94520022    0.28979974    -0.10510000
opls_423-91    C    0.85929990    0.91419989    0.06540014    0.34920000
opls_145-92    C    0.69680015    0.54380023    0.37339983    -0.13650000
opls_916-93    C    0.78300012    0.48309984    0.27900023    0.17690000
opls_145-94    C    0.72839978    0.52659993    0.27960024    -0.13460000
opls_142-95    C    0.81769988    0.51229983    0.09770007    0.02930000
opls_700-96    C    0.85360020    0.50619977    0.00260032    0.04840000
opls_145-97    C    0.87110015    0.56439982    0.94859971    -0.10480000
opls_145-98    C    0.91520003    0.56259996    0.86409998    -0.10510000
opls_700-99    C    0.94030024    0.50190006    0.82610028    0.06830000
opls_145-100    C    0.91870002    0.44330016    0.87569977    -0.10450000
opls_145-101    C    0.87449993    0.44520022    0.96020026    -0.10510000
opls_423-102    C    0.85929990    0.41419989    0.18459986    0.34910000
opls_145-103    C    0.80319985    0.95619977    0.87339983    -0.13650000
opls_916-104    C    0.71699988    0.01690016    0.77900023    0.17690000
opls_145-105    C    0.77160022    0.97340007    0.77960024    -0.13460000
opls_142-106    C    0.68230012    0.98770017    0.59770007    0.02930000
opls_700-107    C    0.64639980    0.99380023    0.50260032    0.04840000
opls_145-108    C    0.62889985    0.93560018    0.44859971    -0.10480000
opls_145-109    C    0.58479997    0.93740004    0.36409998    -0.10510000
opls_700-110    C    0.55969976    0.99809994    0.32610028    0.06830000
opls_145-111    C    0.58129998    0.05669984    0.37569977    -0.10450000
opls_145-112    C    0.62550007    0.05479978    0.46020026    -0.10510000
opls_423-113    C    0.64070010    0.08580011    0.68459986    0.34910000
opls_145-114    C    0.45619977    0.19680015    0.62339983    -0.13650000
opls_916-115    C    0.51690016    0.28300012    0.52900023    0.17690000
opls_145-116    C    0.47340007    0.22839978    0.52960024    -0.13460000
opls_142-117    C    0.48770017    0.31769988    0.34770007    0.02930000
opls_700-118    C    0.49380023    0.35360020    0.25260032    0.04840000
opls_145-119    C    0.43560018    0.37110015    0.19859971    -0.10480000
opls_145-120    C    0.43740004    0.41520003    0.11409998    -0.10510000
opls_700-121    C    0.49809994    0.44030024    0.07610028    0.06830000
opls_145-122    C    0.55669984    0.41870002    0.12569977    -0.10450000
opls_145-123    C    0.55479978    0.37449993    0.21020026    -0.10510000
opls_423-124    C    0.58580011    0.35929990    0.43459986    0.34910000
opls_145-125    C    0.04380023    0.30319985    0.12339983    -0.13650000
opls_916-126    C    0.98309984    0.21699988    0.02900023    0.17690000
opls_145-127    C    0.02659993    0.27160022    0.02960024    -0.13450000
opls_142-128    C    0.01229983    0.18230012    0.84770007    0.02930000
opls_700-129    C    0.00619977    0.14639980    0.75260032    0.04840000
opls_145-130    C    0.06439982    0.12889985    0.69859971    -0.10480000
opls_145-131    C    0.06259996    0.08479997    0.61409998    -0.10510000
opls_700-132    C    0.00190006    0.05969976    0.57610028    0.06830000
opls_145-133    C    0.94330016    0.08129998    0.62569977    -0.10450000
opls_145-134    C    0.94520022    0.12550007    0.71020026    -0.10510000
opls_423-135    C    0.91419989    0.14070010    0.93459986    0.34910000
opls_145-136    C    0.95619977    0.19680015    0.12660017    -0.13650000
opls_916-137    C    0.01690016    0.28300012    0.22099977    0.17690000
opls_145-138    C    0.97340007    0.22839978    0.22039976    -0.13450000
opls_142-139    C    0.98770017    0.31769988    0.40229993    0.02930000
opls_700-140    C    0.99380023    0.35360020    0.49739968    0.04840000
opls_145-141    C    0.93560018    0.37110015    0.55140029    -0.10480000
opls_145-142    C    0.93740004    0.41520003    0.63590002    -0.10500000
opls_700-143    C    0.99809994    0.44030024    0.67389972    0.06830000
opls_145-144    C    0.05669984    0.41870002    0.62430023    -0.10450000
opls_145-145    C    0.05479978    0.37449993    0.53979974    -0.10510000
opls_423-146    C    0.08580011    0.35929990    0.31540014    0.34920000
opls_145-147    C    0.54380023    0.30319985    0.62660017    -0.13650000
opls_916-148    C    0.48309984    0.21699988    0.72099977    0.17690000
opls_145-149    C    0.52659993    0.27160022    0.72039976    -0.13460000
opls_142-150    C    0.51229983    0.18230012    0.90229993    0.02930000
opls_700-151    C    0.50619977    0.14639980    0.99739968    0.04840000
opls_145-152    C    0.56439982    0.12889985    0.05140029    -0.10480000
opls_145-153    C    0.56259996    0.08479997    0.13590002    -0.10510000
opls_700-154    C    0.50190006    0.05969976    0.17389972    0.06830000
opls_145-155    C    0.44330016    0.08129998    0.12430023    -0.10440000
opls_145-156    C    0.44520022    0.12550007    0.03979974    -0.10510000
opls_423-157    C    0.41419989    0.14070010    0.81540014    0.34910000
opls_145-158    C    0.30319985    0.95619977    0.87660017    -0.13650000
opls_916-159    C    0.21699988    0.01690016    0.97099977    0.17690000
opls_145-160    C    0.27160022    0.97340007    0.97039976    -0.13460000
opls_142-161    C    0.18230012    0.98770017    0.15229993    0.02930000
opls_700-162    C    0.14639980    0.99380023    0.24739968    0.04840000
opls_145-163    C    0.12889985    0.93560018    0.30140029    -0.10480000
opls_145-164    C    0.08479997    0.93740004    0.38590002    -0.10510000
opls_700-165    C    0.05969976    0.99809994    0.42389972    0.06830000
opls_145-166    C    0.08129998    0.05669984    0.37430023    -0.10450000
opls_145-167    C    0.12550007    0.05479978    0.28979974    -0.10510000
opls_423-168    C    0.14070010    0.08580011    0.06540014    0.34910000
opls_145-169    C    0.19680015    0.54380023    0.37660017    -0.13650000
opls_916-170    C    0.28300012    0.48309984    0.47099977    0.17690000
opls_145-171    C    0.22839978    0.52659993    0.47039976    -0.13460000
opls_142-172    C    0.31769988    0.51229983    0.65229993    0.02930000
opls_700-173    C    0.35360020    0.50619977    0.74739968    0.04840000
opls_145-174    C    0.37110015    0.56439982    0.80140029    -0.10470000
opls_145-175    C    0.41520003    0.56259996    0.88590002    -0.10510000
opls_700-176    C    0.44030024    0.50190006    0.92389972    0.06830000
opls_145-177    C    0.41870002    0.44330016    0.87430023    -0.10440000
opls_145-178    C    0.37449993    0.44520022    0.78979974    -0.10510000
opls_423-179    C    0.35929990    0.41419989    0.56540014    0.34910000
opls_239-180    N    0.46789981    0.68210019    0.43449974    -0.14000000
opls_753-181    N    0.36850009    0.60610005    0.43550026    -0.43340000
opls_239-182    N    0.03210019    0.81789981    0.93449974    -0.14010000
opls_753-183    N    0.13149991    0.89389995    0.93550026    -0.43340000
opls_239-184    N    0.31789981    0.96789981    0.68449974    -0.14010000
opls_753-185    N    0.39389995    0.86850009    0.68550026    -0.43350000
opls_239-186    N    0.18210019    0.53210019    0.18449974    -0.14010000
opls_753-187    N    0.10610005    0.63149991    0.18550026    -0.43350000
opls_239-188    N    0.53210019    0.81789981    0.81550026    -0.14010000
opls_753-189    N    0.63149991    0.89389995    0.81449974    -0.43340000
opls_239-190    N    0.96789981    0.68210019    0.31550026    -0.14010000
opls_753-191    N    0.86850009    0.60610005    0.31449974    -0.43350000
opls_239-192    N    0.68210019    0.53210019    0.56550026    -0.14010000
opls_753-193    N    0.60610005    0.63149991    0.56449974    -0.43340000
opls_239-194    N    0.81789981    0.96789981    0.06550026    -0.14010000
opls_753-195    N    0.89389995    0.86850009    0.06449974    -0.43340000
opls_239-196    N    0.81789981    0.46789981    0.18449974    -0.14010000
opls_753-197    N    0.89389995    0.36850009    0.18550026    -0.43350000
opls_239-198    N    0.68210019    0.03210019    0.68449974    -0.14010000
opls_753-199    N    0.60610005    0.13149991    0.68550026    -0.43350000
opls_239-200    N    0.53210019    0.31789981    0.43449974    -0.14010000
opls_753-201    N    0.63149991    0.39389995    0.43550026    -0.43350000
opls_239-202    N    0.96789981    0.18210019    0.93449974    -0.14010000
opls_753-203    N    0.86850009    0.10610005    0.93550026    -0.43350000
opls_239-204    N    0.03210019    0.31789981    0.31550026    -0.14010000
opls_753-205    N    0.13149991    0.39389995    0.31449974    -0.43340000
opls_239-206    N    0.46789981    0.18210019    0.81550026    -0.14010000
opls_753-207    N    0.36850009    0.10610005    0.81449974    -0.43350000
opls_239-208    N    0.18210019    0.03210019    0.06550026    -0.14010000
opls_753-209    N    0.10610005    0.13149991    0.06449974    -0.43350000
opls_239-210    N    0.31789981    0.46789981    0.56550026    -0.14010000
opls_753-211    N    0.39389995    0.36850009    0.56449974    -0.43350000
opls_146-212    H    0.57629979    0.84569980    0.61809983    0.09900000
opls_146-213    H    0.54650001    0.79199988    0.45759994    0.10550000
opls_144-214    H    0.56060018    0.70409978    0.36109990    0.07270000
opls_146-215    H    0.61229983    0.64569980    0.22629978    0.07340000
opls_146-216    H    0.60920018    0.56789981    0.08209968    0.07110000
opls_146-217    H    0.39549987    0.56229983    0.10140029    0.06310000
opls_146-218    H    0.39840007    0.64269988    0.24089965    0.10100000
opls_146-219    H    0.92370021    0.65430020    0.11809983    0.09900000
opls_146-220    H    0.95349999    0.70800012    0.95759994    0.10550000
opls_144-221    H    0.93939982    0.79590022    0.86109990    0.07260000
opls_146-222    H    0.88770017    0.85430020    0.72629978    0.07340000
opls_146-223    H    0.89079982    0.93210019    0.58209968    0.07110000
opls_146-224    H    0.10450013    0.93770017    0.60140029    0.06310000
opls_146-225    H    0.10159993    0.85730012    0.74089965    0.10090000
opls_146-226    H    0.15430020    0.07629979    0.86809983    0.09910000
opls_146-227    H    0.20800012    0.04650001    0.70759994    0.10550000
opls_144-228    H    0.29590022    0.06060018    0.61109990    0.07260000
opls_146-229    H    0.35430020    0.11229983    0.47629978    0.07340000
opls_146-230    H    0.43210019    0.10920018    0.33209968    0.07100000
opls_146-231    H    0.43770017    0.89549987    0.35140029    0.06310000
opls_146-232    H    0.35730012    0.89840007    0.49089965    0.10090000
opls_146-233    H    0.34569980    0.42370021    0.36809983    0.09900000
opls_146-234    H    0.29199988    0.45349999    0.20759994    0.10550000
opls_144-235    H    0.20409978    0.43939982    0.11109990    0.07260000
opls_146-236    H    0.14569980    0.38770017    0.97629978    0.07340000
opls_146-237    H    0.06789981    0.39079982    0.83209968    0.07100000
opls_146-238    H    0.06229983    0.60450013    0.85140029    0.06310000
opls_146-239    H    0.14269988    0.60159993    0.99089965    0.10090000
opls_146-240    H    0.42370021    0.65430020    0.63190017    0.09900000
opls_146-241    H    0.45349999    0.70800012    0.79240006    0.10550000
opls_144-242    H    0.43939982    0.79590022    0.88890010    0.07270000
opls_146-243    H    0.38770017    0.85430020    0.02370022    0.07340000
opls_146-244    H    0.39079982    0.93210019    0.16790032    0.07100000
opls_146-245    H    0.60450013    0.93770017    0.14859971    0.06310000
opls_146-246    H    0.60159993    0.85730012    0.00910035    0.10090000
opls_146-247    H    0.07629979    0.84569980    0.13190017    0.09900000
opls_146-248    H    0.04650001    0.79199988    0.29240006    0.10550000
opls_144-249    H    0.06060018    0.70409978    0.38890010    0.07260000
opls_146-250    H    0.11229983    0.64569980    0.52370022    0.07340000
opls_146-251    H    0.10920018    0.56789981    0.66790032    0.07100000
opls_146-252    H    0.89549987    0.56229983    0.64859971    0.06310000
opls_146-253    H    0.89840007    0.64269988    0.50910035    0.10090000
opls_146-254    H    0.84569980    0.42370021    0.38190017    0.09900000
opls_146-255    H    0.79199988    0.45349999    0.54240006    0.10550000
opls_144-256    H    0.70409978    0.43939982    0.63890010    0.07260000
opls_146-257    H    0.64569980    0.38770017    0.77370022    0.07340000
opls_146-258    H    0.56789981    0.39079982    0.91790032    0.07100000
opls_146-259    H    0.56229983    0.60450013    0.89859971    0.06310000
opls_146-260    H    0.64269988    0.60159993    0.75910035    0.10090000
opls_146-261    H    0.65430020    0.07629979    0.88190017    0.09910000
opls_146-262    H    0.70800012    0.04650001    0.04240006    0.10550000
opls_144-263    H    0.79590022    0.06060018    0.13890010    0.07260000
opls_146-264    H    0.85430020    0.11229983    0.27370022    0.07340000
opls_146-265    H    0.93210019    0.10920018    0.41790032    0.07100000
opls_146-266    H    0.93770017    0.89549987    0.39859971    0.06310000
opls_146-267    H    0.85730012    0.89840007    0.25910035    0.10090000
opls_146-268    H    0.65430020    0.57629979    0.36809983    0.09900000
opls_146-269    H    0.70800012    0.54650001    0.20759994    0.10550000
opls_144-270    H    0.79590022    0.56060018    0.11109990    0.07260000
opls_146-271    H    0.85430020    0.61229983    0.97629978    0.07350000
opls_146-272    H    0.93210019    0.60920018    0.83209968    0.07100000
opls_146-273    H    0.93770017    0.39549987    0.85140029    0.06310000
opls_146-274    H    0.85730012    0.39840007    0.99089965    0.10090000
opls_146-275    H    0.84569980    0.92370021    0.86809983    0.09900000
opls_146-276    H    0.79199988    0.95349999    0.70759994    0.10550000
opls_144-277    H    0.70409978    0.93939982    0.61109990    0.07260000
opls_146-278    H    0.64569980    0.88770017    0.47629978    0.07340000
opls_146-279    H    0.56789981    0.89079982    0.33209968    0.07100000
opls_146-280    H    0.56229983    0.10450013    0.35140029    0.06310000
opls_146-281    H    0.64269988    0.10159993    0.49089965    0.10090000
opls_146-282    H    0.42370021    0.15430020    0.61809983    0.09900000
opls_146-283    H    0.45349999    0.20800012    0.45759994    0.10550000
opls_144-284    H    0.43939982    0.29590022    0.36109990    0.07260000
opls_146-285    H    0.38770017    0.35430020    0.22629978    0.07340000
opls_146-286    H    0.39079982    0.43210019    0.08209968    0.07100000
opls_146-287    H    0.60450013    0.43770017    0.10140029    0.06310000
opls_146-288    H    0.60159993    0.35730012    0.24089965    0.10100000
opls_146-289    H    0.07629979    0.34569980    0.11809983    0.09900000
opls_146-290    H    0.04650001    0.29199988    0.95759994    0.10550000
opls_144-291    H    0.06060018    0.20409978    0.86109990    0.07260000
opls_146-292    H    0.11229983    0.14569980    0.72629978    0.07340000
opls_146-293    H    0.10920018    0.06789981    0.58209968    0.07100000
opls_146-294    H    0.89549987    0.06229983    0.60140029    0.06310000
opls_146-295    H    0.89840007    0.14269988    0.74089965    0.10090000
opls_146-296    H    0.92370021    0.15430020    0.13190017    0.09900000
opls_146-297    H    0.95349999    0.20800012    0.29240006    0.10560000
opls_144-298    H    0.93939982    0.29590022    0.38890010    0.07260000
opls_146-299    H    0.88770017    0.35430020    0.52370022    0.07340000
opls_146-300    H    0.89079982    0.43210019    0.66790032    0.07100000
opls_146-301    H    0.10450013    0.43770017    0.64859971    0.06310000
opls_146-302    H    0.10159993    0.35730012    0.50910035    0.10090000
opls_146-303    H    0.57629979    0.34569980    0.63190017    0.09900000
opls_146-304    H    0.54650001    0.29199988    0.79240006    0.10550000
opls_144-305    H    0.56060018    0.20409978    0.88890010    0.07260000
opls_146-306    H    0.61229983    0.14569980    0.02370022    0.07350000
opls_146-307    H    0.60920018    0.06789981    0.16790032    0.07100000
opls_146-308    H    0.39549987    0.06229983    0.14859971    0.06310000
opls_146-309    H    0.39840007    0.14269988    0.00910035    0.10090000
opls_146-310    H    0.34569980    0.92370021    0.88190017    0.09900000
opls_146-311    H    0.29199988    0.95349999    0.04240006    0.10550000
opls_144-312    H    0.20409978    0.93939982    0.13890010    0.07260000
opls_146-313    H    0.14569980    0.88770017    0.27370022    0.07350000
opls_146-314    H    0.06789981    0.89079982    0.41790032    0.07100000
opls_146-315    H    0.06229983    0.10450013    0.39859971    0.06310000
opls_146-316    H    0.14269988    0.10159993    0.25910035    0.10090000
opls_146-317    H    0.15430020    0.57629979    0.38190017    0.09900000
opls_146-318    H    0.20800012    0.54650001    0.54240006    0.10550000
opls_144-319    H    0.29590022    0.56060018    0.63890010    0.07260000
opls_146-320    H    0.35430020    0.61229983    0.77370022    0.07340000
opls_146-321    H    0.43210019    0.60920018    0.91790032    0.07100000
opls_146-322    H    0.43770017    0.39549987    0.89859971    0.06310000
opls_146-323    H    0.35730012    0.39840007    0.75910035    0.10090000
