#======================================================================
# Crystal Data Generated By AuToFF
#----------------------------------------------------------------------

data_AuToFF_phase_1

_cell_length_a                         46.3300
_cell_length_b                         46.3300
_cell_length_c                         3.4200
_cell_angle_alpha                      90.00
_cell_angle_beta                       90.00
_cell_angle_gamma                      120.00
_symmetry_space_group_name_H-M_alt     'P 1'
_symmetry_space_group_IT_number        1

loop_
_space_group_symop_operation_xyz
   'x, y, z'

loop_
   _atom_site_label
   _atom_site_type_symbol
   _atom_site_fract_x
   _atom_site_fract_y
   _atom_site_fract_z
   _atom_site_charge
opls_145-0    C    0.01880002    0.56390007    0.50000000    -0.10560000
opls_700-1    C    0.03650005    0.54610004    0.50000000    0.06000000
opls_145-2    C    0.07210005    0.56390007    0.50000000    -0.07180000
opls_166-3    C    0.18019999    0.60670000    0.50000000    0.17820000
opls_700-4    C    0.21089992    0.63729994    0.50000000    -0.02260000
opls_145-5    C    0.21100004    0.66819995    0.50000000    -0.20020000
opls_145-6    C    0.23939989    0.69659990    0.50000000    -0.20030000
opls_700-7    C    0.27029995    0.69659990    0.50000000    0.06190000
opls_145-8    C    0.27029987    0.66579983    0.50000000    -0.13170000
opls_147-9    C    0.24179998    0.63729994    0.50000000    0.01850000
opls_145-10    C    0.43609985    0.45489989    0.50000000    -0.10560000
opls_700-11    C    0.45389998    0.49040001    0.50000000    0.06000000
opls_145-12    C    0.43610002    0.50820004    0.50000000    -0.07180000
opls_166-13    C    0.39330000    0.57350006    0.50000000    0.17820000
opls_700-14    C    0.36270007    0.57360000    0.50000000    -0.02260000
opls_145-15    C    0.33179992    0.54279993    0.50000000    -0.20180000
opls_145-16    C    0.30339997    0.54279993    0.50000000    -0.20030000
opls_700-17    C    0.30339994    0.57369995    0.50000000    0.06190000
opls_145-18    C    0.33419993    0.60450002    0.50000000    -0.13170000
opls_147-19    C    0.36270004    0.60450002    0.50000000    0.01850000
opls_145-20    C    0.54510013    0.98120004    0.50000000    -0.10550000
opls_700-21    C    0.50959996    0.96349995    0.50000000    0.06000000
opls_145-22    C    0.49179993    0.92789989    0.50000000    -0.07180000
opls_166-23    C    0.42650001    0.81979993    0.50000000    0.17820000
opls_700-24    C    0.42640002    0.78910006    0.50000000    -0.02260000
opls_145-25    C    0.45719991    0.78899986    0.50000000    -0.20020000
opls_145-26    C    0.45720002    0.76059992    0.50000000    -0.20030000
opls_700-27    C    0.42629998    0.72969990    0.50000000    0.06190000
opls_145-28    C    0.39549985    0.72969990    0.50000000    -0.13170000
opls_147-29    C    0.39549998    0.75820004    0.50000000    0.01850000
opls_145-30    C    0.98119998    0.43609993    0.50000000    -0.10560000
opls_700-31    C    0.96349995    0.45389996    0.50000000    0.06000000
opls_145-32    C    0.92789995    0.43609993    0.50000000    -0.07180000
opls_166-33    C    0.81980001    0.39330000    0.50000000    0.17820000
opls_700-34    C    0.78910008    0.36270006    0.50000000    -0.02260000
opls_145-35    C    0.78899996    0.33180005    0.50000000    -0.20030000
opls_145-36    C    0.76060011    0.30340010    0.50000000    -0.20030000
opls_700-37    C    0.72970005    0.30340010    0.50000000    0.06190000
opls_145-38    C    0.72970000    0.33419992    0.50000000    -0.13170000
opls_147-39    C    0.75820002    0.36270006    0.50000000    0.01850000
opls_145-40    C    0.56390003    0.54509986    0.50000000    -0.10560000
opls_700-41    C    0.54610002    0.50959999    0.50000000    0.06000000
opls_145-42    C    0.56389998    0.49179996    0.50000000    -0.07180000
opls_166-43    C    0.60670000    0.42649994    0.50000000    0.17820000
opls_700-44    C    0.63729993    0.42640000    0.50000000    -0.02260000
opls_145-45    C    0.66820008    0.45720007    0.50000000    -0.20030000
opls_145-46    C    0.69660003    0.45720007    0.50000000    -0.20030000
opls_700-47    C    0.69660006    0.42630005    0.50000000    0.06190000
opls_145-48    C    0.66580007    0.39549998    0.50000000    -0.13170000
opls_147-49    C    0.63729996    0.39549998    0.50000000    0.01850000
opls_145-50    C    0.45489987    0.01879996    0.50000000    -0.10560000
opls_700-51    C    0.49040004    0.03650005    0.50000000    0.06000000
opls_145-52    C    0.50820007    0.07210011    0.50000000    -0.07180000
opls_166-53    C    0.57349999    0.18020007    0.50000000    0.17820000
opls_700-54    C    0.57359998    0.21089994    0.50000000    -0.02260000
opls_145-55    C    0.54279996    0.21099989    0.50000000    -0.20180000
opls_145-56    C    0.54279998    0.23940008    0.50000000    -0.20030000
opls_700-57    C    0.57370002    0.27030010    0.50000000    0.06190000
opls_145-58    C    0.60450015    0.27030010    0.50000000    -0.13170000
opls_147-59    C    0.60450002    0.24179996    0.50000000    0.01850000
opls_145-60    C    0.56390009    0.01879996    0.50000000    -0.10560000
opls_700-61    C    0.54610001    0.03650005    0.50000000    0.06000000
opls_145-62    C    0.56390005    0.07210011    0.50000000    -0.07180000
opls_166-63    C    0.60670008    0.18020007    0.50000000    0.17820000
opls_700-64    C    0.63729996    0.21089994    0.50000000    -0.02260000
opls_145-65    C    0.66819992    0.21099989    0.50000000    -0.20030000
opls_145-66    C    0.69660011    0.23940008    0.50000000    -0.20030000
opls_700-67    C    0.69660008    0.27030010    0.50000000    0.06190000
opls_145-68    C    0.66579995    0.27030010    0.50000000    -0.13170000
opls_147-69    C    0.63729994    0.24179996    0.50000000    0.01850000
opls_145-70    C    0.45489995    0.43609993    0.50000000    -0.10560000
opls_700-71    C    0.49040001    0.45389996    0.50000000    0.06000000
opls_145-72    C    0.50819998    0.43609993    0.50000000    -0.07180000
opls_166-73    C    0.57349999    0.39330000    0.50000000    0.17820000
opls_700-74    C    0.57359998    0.36270006    0.50000000    -0.02260000
opls_145-75    C    0.54280009    0.33180005    0.50000000    -0.20030000
opls_145-76    C    0.54279998    0.30340010    0.50000000    -0.20030000
opls_700-77    C    0.57370005    0.30340010    0.50000000    0.06190000
opls_145-78    C    0.60449992    0.33419992    0.50000000    -0.13170000
opls_147-79    C    0.60450004    0.36270006    0.50000000    0.01850000
opls_145-80    C    0.98119983    0.54509986    0.50000000    -0.10560000
opls_700-81    C    0.96349997    0.50959999    0.50000000    0.06000000
opls_145-82    C    0.92789998    0.49179996    0.50000000    -0.07180000
opls_166-83    C    0.81979994    0.42649994    0.50000000    0.17820000
opls_700-84    C    0.78910006    0.42640000    0.50000000    -0.02260000
opls_145-85    C    0.78899999    0.45720007    0.50000000    -0.20030000
opls_145-86    C    0.76060003    0.45720007    0.50000000    -0.20030000
opls_700-87    C    0.72969999    0.42630005    0.50000000    0.06190000
opls_145-88    C    0.72969992    0.39549998    0.50000000    -0.13170000
opls_147-89    C    0.75820002    0.39549998    0.50000000    0.01850000
opls_145-90    C    0.43609991    0.98120004    0.50000000    -0.10560000
opls_700-91    C    0.45389999    0.96349995    0.50000000    0.06000000
opls_145-92    C    0.43609995    0.92789989    0.50000000    -0.07180000
opls_166-93    C    0.39329992    0.81979993    0.50000000    0.17820000
opls_700-94    C    0.36270004    0.78910006    0.50000000    -0.02260000
opls_145-95    C    0.33179995    0.78899986    0.50000000    -0.20030000
opls_145-96    C    0.30339989    0.76059992    0.50000000    -0.20030000
opls_700-97    C    0.30339992    0.72969990    0.50000000    0.06190000
opls_145-98    C    0.33420005    0.72969990    0.50000000    -0.13170000
opls_147-99    C    0.36270006    0.75820004    0.50000000    0.01850000
opls_145-100    C    0.54510005    0.56390007    0.50000000    -0.10560000
opls_700-101    C    0.50959999    0.54610004    0.50000000    0.06000000
opls_145-102    C    0.49180002    0.56390007    0.50000000    -0.07180000
opls_166-103    C    0.42650001    0.60670000    0.50000000    0.17820000
opls_700-104    C    0.42640002    0.63729994    0.50000000    -0.02260000
opls_145-105    C    0.45719991    0.66819995    0.50000000    -0.20180000
opls_145-106    C    0.45720002    0.69659990    0.50000000    -0.20030000
opls_700-107    C    0.42629995    0.69659990    0.50000000    0.06190000
opls_145-108    C    0.39549996    0.66579983    0.50000000    -0.13160000
opls_147-109    C    0.39549996    0.63729994    0.50000000    0.01850000
opls_145-110    C    0.01880004    0.45489989    0.50000000    -0.10560000
opls_700-111    C    0.03650003    0.49040001    0.50000000    0.06000000
opls_145-112    C    0.07210002    0.50820004    0.50000000    -0.07180000
opls_166-113    C    0.18020006    0.57350006    0.50000000    0.17820000
opls_700-114    C    0.21089994    0.57360000    0.50000000    -0.02260000
opls_145-115    C    0.21100001    0.54279993    0.50000000    -0.20030000
opls_145-116    C    0.23939997    0.54279993    0.50000000    -0.20030000
opls_700-117    C    0.27030001    0.57369995    0.50000000    0.06190000
opls_145-118    C    0.27030008    0.60450002    0.50000000    -0.13170000
opls_147-119    C    0.24179998    0.60450002    0.50000000    0.01850000
opls_145-120    C    0.01649986    0.50824989    0.50000000    -0.03100000
opls_145-121    C    0.08759991    0.54379986    0.50000000    -0.25930000
opls_145-122    C    0.49175003    0.50824989    0.50000000    -0.03100000
opls_145-123    C    0.45619995    0.54379986    0.50000000    -0.25930000
opls_145-124    C    0.49174999    0.98349997    0.50000000    -0.03100000
opls_145-125    C    0.45620002    0.91240003    0.50000000    -0.25940000
opls_145-126    C    0.98350001    0.49174986    0.50000000    -0.03100000
opls_145-127    C    0.91239997    0.45619989    0.50000000    -0.25940000
opls_145-128    C    0.50824985    0.49174986    0.50000000    -0.03100000
opls_145-129    C    0.54379992    0.45619989    0.50000000    -0.25940000
opls_145-130    C    0.50825001    0.01650003    0.50000000    -0.03100000
opls_145-131    C    0.54379998    0.08759997    0.50000000    -0.25940000
opls_167-132    O    0.14379996    0.59869985    0.50000000    -0.37520000
opls_167-133    O    0.40129999    0.54509986    0.50000000    -0.37520000
opls_167-134    O    0.45489993    0.85620004    0.50000000    -0.37520000
opls_167-135    O    0.85619992    0.40129990    0.50000000    -0.37520000
opls_167-136    O    0.59869989    0.45489989    0.50000000    -0.37510000
opls_167-137    O    0.54510007    0.14379996    0.50000000    -0.37500000
opls_167-138    O    0.59869989    0.14379996    0.50000000    -0.37520000
opls_167-139    O    0.54509998    0.40129990    0.50000000    -0.37510000
opls_167-140    O    0.85620000    0.45489989    0.50000000    -0.37520000
opls_167-141    O    0.40130011    0.85620004    0.50000000    -0.37520000
opls_167-142    O    0.45489989    0.59869985    0.50000000    -0.37510000
opls_167-143    O    0.14379988    0.54509986    0.50000000    -0.37520000
opls_146-144    H    0.03205984    0.59087989    0.50000000    0.11230000
opls_146-145    H    0.08593994    0.59101995    0.50000000    0.10430000
opls_146-146    H    0.18754001    0.66811995    0.50000000    0.11050000
opls_146-147    H    0.23744003    0.71871991    0.50000000    0.10200000
opls_146-148    H    0.29268994    0.66658990    0.50000000    0.23430000
opls_146-149    H    0.40911993    0.44118006    0.50000000    0.11230000
opls_146-150    H    0.40897990    0.49491987    0.50000000    0.10430000
opls_146-151    H    0.33189004    0.51942005    0.50000000    0.10910000
opls_146-152    H    0.28127992    0.51872992    0.50000000    0.10200000
opls_146-153    H    0.33340994    0.62608990    0.50000000    0.23410000
opls_146-154    H    0.55881989    0.96793980    0.50000000    0.11230000
opls_146-155    H    0.50508004    0.91405993    0.50000000    0.10430000
opls_146-156    H    0.48058010    0.81246000    0.50000000    0.11050000
opls_146-157    H    0.48127002    0.76255989    0.50000000    0.10200000
opls_146-158    H    0.37390990    0.70730998    0.50000000    0.23410000
opls_146-159    H    0.96794003    0.40911987    0.50000000    0.11230000
opls_146-160    H    0.91406006    0.40898005    0.50000000    0.10430000
opls_146-161    H    0.81245999    0.33188005    0.50000000    0.11050000
opls_146-162    H    0.76255997    0.28128009    0.50000000    0.10200000
opls_146-163    H    0.70731006    0.33341010    0.50000000    0.23430000
opls_146-164    H    0.59088007    0.55881994    0.50000000    0.11230000
opls_146-165    H    0.59101996    0.50506992    0.50000000    0.10430000
opls_146-166    H    0.66811989    0.48057995    0.50000000    0.11050000
opls_146-167    H    0.71872008    0.48127008    0.50000000    0.10200000
opls_146-168    H    0.66658994    0.37390985    0.50000000    0.23410000
opls_146-169    H    0.44117998    0.03205995    0.50000000    0.11230000
opls_146-170    H    0.49493010    0.08594007    0.50000000    0.10470000
opls_146-171    H    0.51942010    0.18753003    0.50000000    0.10910000
opls_146-172    H    0.51872986    0.23743986    0.50000000    0.10200000
opls_146-173    H    0.62609010    0.29269002    0.50000000    0.23410000
opls_146-174    H    0.59087996    0.03205995    0.50000000    0.11230000
opls_146-175    H    0.59102011    0.08594007    0.50000000    0.10430000
opls_146-176    H    0.66812010    0.18754000    0.50000000    0.11050000
opls_146-177    H    0.71871993    0.23743986    0.50000000    0.10200000
opls_146-178    H    0.66658999    0.29269002    0.50000000    0.23430000
opls_146-179    H    0.44117983    0.40911987    0.50000000    0.11230000
opls_146-180    H    0.49493013    0.40898005    0.50000000    0.10430000
opls_146-181    H    0.51942006    0.33188005    0.50000000    0.11060000
opls_146-182    H    0.51873005    0.28128009    0.50000000    0.10200000
opls_146-183    H    0.62609011    0.33341010    0.50000000    0.23410000
opls_146-184    H    0.96793986    0.55881994    0.50000000    0.11230000
opls_146-185    H    0.91405989    0.50506992    0.50000000    0.10470000
opls_146-186    H    0.81246006    0.48057995    0.50000000    0.11050000
opls_146-187    H    0.76256014    0.48127008    0.50000000    0.10200000
opls_146-188    H    0.70730999    0.37390985    0.50000000    0.23410000
opls_146-189    H    0.40911991    0.96793980    0.50000000    0.11230000
opls_146-190    H    0.40897989    0.91405993    0.50000000    0.10440000
opls_146-191    H    0.33189005    0.81246000    0.50000000    0.10750000
opls_146-192    H    0.28127995    0.76255989    0.50000000    0.10200000
opls_146-193    H    0.33341001    0.70730998    0.50000000    0.23420000
opls_146-194    H    0.55882004    0.59087989    0.50000000    0.11230000
opls_146-195    H    0.50508002    0.59101995    0.50000000    0.10430000
opls_146-196    H    0.48057992    0.66810998    0.50000000    0.10910000
opls_146-197    H    0.48126995    0.71871991    0.50000000    0.10200000
opls_146-198    H    0.37390989    0.66658990    0.50000000    0.23410000
opls_146-199    H    0.03206014    0.44118006    0.50000000    0.11240000
opls_146-200    H    0.08593997    0.49491987    0.50000000    0.10430000
opls_146-201    H    0.18753994    0.51942005    0.50000000    0.11050000
opls_146-202    H    0.23743986    0.51872992    0.50000000    0.10200000
opls_146-203    H    0.29268989    0.62608990    0.50000000    0.23410000
MOF2_B_2-204    B    0.12129999    0.56065006    0.50000000    0.54330000
MOF2_B_2-205    B    0.43935007    0.56065006    0.50000000    0.54330000
MOF2_B_2-206    B    0.43934994    0.87869988    0.50000000    0.54320000
MOF2_B_2-207    B    0.87870001    0.43934994    0.50000000    0.54330000
MOF2_B_2-208    B    0.56064993    0.43934994    0.50000000    0.54330000
MOF2_B_2-209    B    0.56064994    0.12129987    0.50000000    0.54320000
