#======================================================================
# Crystal Data Generated By AuToFF
#----------------------------------------------------------------------

data_AuToFF_phase_1

_cell_length_a                         33.2557
_cell_length_b                         33.2557
_cell_length_c                         9.4303
_cell_angle_alpha                      90.00
_cell_angle_beta                       90.00
_cell_angle_gamma                      120.00
_symmetry_space_group_name_H-M_alt     'P 1'
_symmetry_space_group_IT_number        1

loop_
_space_group_symop_operation_xyz
   'x, y, z'

loop_
   _atom_site_label
   _atom_site_type_symbol
   _atom_site_fract_x
   _atom_site_fract_y
   _atom_site_fract_z
   _atom_site_charge
opls_145-0    C    0.29187003    0.30260991    0.16985038    -0.10240000
opls_145-1    C    0.29251009    0.26133010    0.16923958    0.06090000
opls_142-2    C    0.25049002    0.21631005    0.16941031    0.08600000
opls_145-3    C    0.16791999    0.16849003    0.18582018    0.27200000
opls_145-4    C    0.12690993    0.16761990    0.15612971    -0.13060000
opls_145-5    C    0.08523990    0.12618002    0.15575963    -0.10280000
opls_700-6    C    0.08398994    0.08470994    0.18566005    0.10660000
opls_145-7    C    0.12514992    0.08578007    0.21803972    -0.10210000
opls_145-8    C    0.16660016    0.12720015    0.21942992    -0.13940000
opls_145-9    C    0.04014017    0.04053016    0.18398036    0.04650000
opls_145-10    C    0.04023993    0.00036007    0.18407050    -0.09920000
opls_145-11    C    0.95853989    0.63594000    0.50318017    -0.10240000
opls_145-12    C    0.95918024    0.59466019    0.50257044    0.06090000
opls_142-13    C    0.91716018    0.54964014    0.50274010    0.08610000
opls_145-14    C    0.83459015    0.50182012    0.51914997    0.27200000
opls_145-15    C    0.79358009    0.50094999    0.48945951    -0.13060000
opls_145-16    C    0.75191006    0.45951012    0.48909048    -0.10290000
opls_700-17    C    0.75066010    0.41804003    0.51898985    0.11230000
opls_145-18    C    0.79182008    0.41911016    0.55136952    -0.10210000
opls_145-19    C    0.83326985    0.46052990    0.55275972    -0.13900000
opls_145-20    C    0.70680985    0.37385991    0.51731016    0.04650000
opls_145-21    C    0.70691009    0.33369016    0.51740029    -0.09920000
opls_145-22    C    0.62520004    0.96928016    0.83651952    -0.10230000
opls_145-23    C    0.62583993    0.92800001    0.83590978    0.06090000
opls_142-24    C    0.58381986    0.88297996    0.83608051    0.08600000
opls_145-25    C    0.50124984    0.83515994    0.85249038    0.27200000
opls_145-26    C    0.46023994    0.83429015    0.82279991    -0.13050000
opls_145-27    C    0.41857004    0.79284993    0.82242983    -0.10290000
opls_700-28    C    0.41731995    0.75138019    0.85233025    0.11230000
opls_145-29    C    0.45848006    0.75244998    0.88470992    -0.10210000
opls_145-30    C    0.49993001    0.79387006    0.88610012    -0.13900000
opls_145-31    C    0.37347001    0.70720007    0.85064950    0.04650000
opls_145-32    C    0.37357007    0.66702997    0.85073964    -0.09920000
opls_145-33    C    0.69739022    0.98926017    0.16985038    -0.10240000
opls_145-34    C    0.73866991    0.03117991    0.16923958    0.06090000
opls_142-35    C    0.78368995    0.03417988    0.16941031    0.08580000
opls_145-36    C    0.83150978    0.99942987    0.18582018    0.27200000
opls_145-37    C    0.83238001    0.95928998    0.15612971    -0.13060000
opls_145-38    C    0.87382006    0.95906012    0.15575963    -0.10290000
opls_700-39    C    0.91528988    0.99927987    0.18566005    0.11230000
opls_145-40    C    0.91422012    0.03937010    0.21803972    -0.10210000
opls_145-41    C    0.87280005    0.03939996    0.21942992    -0.13940000
opls_145-42    C    0.95947000    0.99961007    0.18398036    0.04650000
opls_145-43    C    0.99964011    0.03988017    0.18407050    -0.09920000
opls_145-44    C    0.36405990    0.32258992    0.50318017    -0.10240000
opls_145-45    C    0.40534006    0.36451000    0.50257044    0.06090000
opls_142-46    C    0.45036011    0.36750997    0.50274010    0.08600000
opls_145-47    C    0.49817994    0.33275996    0.51914997    0.28010000
opls_145-48    C    0.49905017    0.29262007    0.48945951    -0.13060000
opls_145-49    C    0.54049005    0.29238987    0.48909048    -0.10290000
opls_700-50    C    0.58196004    0.33260996    0.51898985    0.11230000
opls_145-51    C    0.58088981    0.37269985    0.55136952    -0.10210000
opls_145-52    C    0.53946991    0.37273006    0.55275972    -0.13900000
opls_145-53    C    0.62614015    0.33294017    0.51731016    0.04650000
opls_145-54    C    0.66631009    0.37320991    0.51740029    -0.09920000
opls_145-55    C    0.03072006    0.65593008    0.83651952    -0.10240000
opls_145-56    C    0.07200022    0.69785016    0.83590978    0.06090000
opls_142-57    C    0.11701996    0.70085013    0.83608051    0.08580000
opls_145-58    C    0.16484010    0.66610012    0.85249038    0.27200000
opls_145-59    C    0.16570985    0.62595989    0.82279991    -0.13060000
opls_145-60    C    0.20714990    0.62573003    0.82242983    -0.10290000
opls_700-61    C    0.24862020    0.66595012    0.85233025    0.11230000
opls_145-62    C    0.24754997    0.70604001    0.88470992    -0.10210000
opls_145-63    C    0.20612989    0.70606987    0.88610012    -0.13900000
opls_145-64    C    0.29280014    0.66627998    0.85064950    0.04650000
opls_145-65    C    0.33296995    0.70655008    0.85073964    -0.09920000
opls_145-66    C    0.01074006    0.70812992    0.16985038    -0.10240000
opls_145-67    C    0.96882001    0.70749000    0.16923958    0.06090000
opls_142-68    C    0.96582003    0.74951007    0.16941031    0.08580000
opls_145-69    C    0.00056992    0.83208010    0.18582018    0.27160000
opls_145-70    C    0.04071006    0.87309012    0.15612971    -0.13060000
opls_145-71    C    0.04094021    0.91476020    0.15575963    -0.10290000
opls_700-72    C    0.00072018    0.91601019    0.18566005    0.11230000
opls_145-73    C    0.96063013    0.87485018    0.21803972    -0.10210000
opls_145-74    C    0.96060009    0.83339988    0.21942992    -0.13940000
opls_145-75    C    0.00039001    0.95986011    0.18398036    0.04650000
opls_145-76    C    0.96012014    0.95976011    0.18407050    -0.09920000
opls_145-77    C    0.67740991    0.04146001    0.50318017    -0.10210000
opls_145-78    C    0.63549017    0.04082009    0.50257044    0.06090000
opls_142-79    C    0.63249019    0.08284017    0.50274010    0.08580000
opls_145-80    C    0.66723991    0.16540985    0.51914997    0.26660000
opls_145-81    C    0.70738005    0.20641987    0.48945951    -0.13060000
opls_145-82    C    0.70760990    0.24808995    0.48909048    -0.10290000
opls_700-83    C    0.66738986    0.24933994    0.51898985    0.10660000
opls_145-84    C    0.62729982    0.20817992    0.55136952    -0.10210000
opls_145-85    C    0.62726994    0.16672998    0.55275972    -0.13900000
opls_145-86    C    0.66705999    0.29318986    0.51731016    0.04650000
opls_145-87    C    0.62678982    0.29308986    0.51740029    -0.09920000
opls_145-88    C    0.34407007    0.37480018    0.83651952    -0.10240000
opls_145-89    C    0.30214985    0.37415990    0.83590978    0.06090000
opls_142-90    C    0.29914987    0.41617998    0.83608051    0.08580000
opls_145-91    C    0.33390006    0.49875001    0.85249038    0.27160000
opls_145-92    C    0.37403990    0.53976003    0.82279991    -0.13060000
opls_145-93    C    0.37427006    0.58143011    0.82242983    -0.10290000
opls_700-94    C    0.33405002    0.58268010    0.85233025    0.11230000
opls_145-95    C    0.29395997    0.54152008    0.88470992    -0.10210000
opls_145-96    C    0.29393010    0.50007014    0.88610012    -0.13900000
opls_145-97    C    0.33372015    0.62653002    0.85064950    0.04650000
opls_145-98    C    0.29344998    0.62643002    0.85073964    -0.09920000
opls_145-99    C    0.30261014    0.29187008    0.83014962    -0.10240000
opls_145-100    C    0.26133001    0.29251000    0.83076042    0.06090000
opls_142-101    C    0.21630995    0.25048993    0.83058969    0.08600000
opls_145-102    C    0.16848982    0.16791990    0.81417982    0.27200000
opls_145-103    C    0.16761994    0.12690988    0.84387029    -0.13060000
opls_145-104    C    0.12618018    0.08524014    0.84424037    -0.10290000
opls_700-105    C    0.08471016    0.08399016    0.81433995    0.11230000
opls_145-106    C    0.08578013    0.12515017    0.78196028    -0.10210000
opls_145-107    C    0.12720020    0.16660012    0.78057008    -0.13900000
opls_145-108    C    0.04052989    0.04013989    0.81601964    0.04650000
opls_145-109    C    0.00036002    0.04023989    0.81592950    -0.09920000
opls_145-110    C    0.96927999    0.62520017    0.16348048    -0.10240000
opls_145-111    C    0.92800017    0.62584010    0.16409022    0.06090000
opls_142-112    C    0.88298011    0.58382002    0.16391949    0.08600000
opls_145-113    C    0.83515998    0.50124999    0.14750962    0.27200000
opls_145-114    C    0.83429010    0.46023997    0.17720009    -0.13060000
opls_145-115    C    0.79284987    0.41856989    0.17757017    -0.10290000
opls_700-116    C    0.75137985    0.41731990    0.14766975    0.11230000
opls_145-117    C    0.75244981    0.45847992    0.11529008    -0.10210000
opls_145-118    C    0.79386989    0.49992986    0.11389988    -0.13900000
opls_145-119    C    0.70720005    0.37346998    0.14935050    0.04650000
opls_145-120    C    0.66702988    0.37356998    0.14926036    -0.09920000
opls_145-121    C    0.63593998    0.95853999    0.49681983    -0.10230000
opls_145-122    C    0.59465985    0.95917991    0.49742956    0.06090000
opls_142-123    C    0.54963997    0.91716018    0.49725990    0.08610000
opls_145-124    C    0.50182013    0.83459015    0.48085003    0.27200000
opls_145-125    C    0.50094995    0.79358013    0.51054049    -0.13060000
opls_145-126    C    0.45951003    0.75191005    0.51090952    -0.10290000
opls_700-127    C    0.41804000    0.75066006    0.48101015    0.10660000
opls_145-128    C    0.41910997    0.79182008    0.44863048    -0.10210000
opls_145-129    C    0.46053004    0.83327002    0.44724028    -0.13900000
opls_145-130    C    0.37386021    0.70681014    0.48268984    0.04650000
opls_145-131    C    0.33369004    0.70691014    0.48259971    -0.09920000
opls_145-132    C    0.98926012    0.69739009    0.83014962    -0.10240000
opls_145-133    C    0.03117999    0.73866990    0.83076042    0.06090000
opls_142-134    C    0.03417997    0.78368995    0.83058969    0.08590000
opls_145-135    C    0.99942996    0.83150997    0.81417982    0.27200000
opls_145-136    C    0.95929003    0.83238010    0.84387029    -0.13060000
opls_145-137    C    0.95905988    0.87381998    0.84424037    -0.10280000
opls_700-138    C    0.99928000    0.91529006    0.81433995    0.11230000
opls_145-139    C    0.03936985    0.91421993    0.78196028    -0.10210000
opls_145-140    C    0.03940018    0.87280019    0.78057008    -0.13940000
opls_145-141    C    0.99961018    0.95947019    0.81601964    0.04650000
opls_145-142    C    0.03987987    0.99963993    0.81592950    -0.09920000
opls_145-143    C    0.65592981    0.03071984    0.16348048    -0.10240000
opls_145-144    C    0.69785015    0.07199999    0.16409022    0.06090000
opls_142-145    C    0.70085013    0.11702004    0.16391949    0.08580000
opls_145-146    C    0.66610012    0.16484006    0.14750962    0.27200000
opls_145-147    C    0.62596002    0.16570985    0.17720009    -0.13060000
opls_145-148    C    0.62573003    0.20715007    0.17757017    -0.10290000
opls_700-149    C    0.66595016    0.24862015    0.14766975    0.11230000
opls_145-150    C    0.70604001    0.24755002    0.11529008    -0.10210000
opls_145-151    C    0.70606987    0.20612994    0.11389988    -0.13900000
opls_145-152    C    0.66627987    0.29279993    0.14935050    0.04650000
opls_145-153    C    0.70655002    0.33297003    0.14926036    -0.09920000
opls_145-154    C    0.32258997    0.36406000    0.49681983    -0.10240000
opls_145-155    C    0.36451000    0.40534016    0.49742956    0.06090000
opls_142-156    C    0.36750982    0.45035986    0.49725990    0.08730000
opls_145-157    C    0.33275981    0.49817988    0.48085003    0.28010000
opls_145-158    C    0.29261987    0.49905001    0.51054049    -0.13060000
opls_145-159    C    0.29239002    0.54048988    0.51090952    -0.10290000
opls_700-160    C    0.33260984    0.58195997    0.48101015    0.11230000
opls_145-161    C    0.37270016    0.58089019    0.44863048    -0.10210000
opls_145-162    C    0.37273003    0.53947010    0.44724028    -0.13940000
opls_145-163    C    0.33294002    0.62614009    0.48268984    0.04650000
opls_145-164    C    0.37321018    0.66631019    0.48259971    -0.09920000
opls_145-165    C    0.70813022    0.01074017    0.83014962    -0.10240000
opls_145-166    C    0.70749000    0.96882009    0.83076042    0.06090000
opls_142-167    C    0.74951007    0.96582012    0.83058969    0.08580000
opls_145-168    C    0.83207992    0.00057013    0.81417982    0.27170000
opls_145-169    C    0.87309003    0.04071002    0.84387029    -0.13060000
opls_145-170    C    0.91475994    0.04093988    0.84424037    -0.10290000
opls_700-171    C    0.91601001    0.00072013    0.81433995    0.10670000
opls_145-172    C    0.87485002    0.96062990    0.78196028    -0.10210000
opls_145-173    C    0.83340009    0.96060004    0.78057008    -0.13930000
opls_145-174    C    0.95985992    0.00038993    0.81601964    0.04650000
opls_145-175    C    0.95976011    0.96012018    0.81592950    -0.09920000
opls_145-176    C    0.37479990    0.34406992    0.16348048    -0.10240000
opls_145-177    C    0.37415999    0.30214984    0.16409022    0.06090000
opls_142-178    C    0.41618006    0.29914987    0.16391949    0.08580000
opls_145-179    C    0.49874990    0.33389988    0.14750962    0.27970000
opls_145-180    C    0.53976019    0.37404011    0.17720009    -0.13060000
opls_145-181    C    0.58143010    0.37426997    0.17757017    -0.10290000
opls_700-182    C    0.58268000    0.33404988    0.14766975    0.11230000
opls_145-183    C    0.54151988    0.29395999    0.11529008    -0.10210000
opls_145-184    C    0.50006995    0.29393013    0.11389988    -0.13900000
opls_145-185    C    0.62653008    0.33372002    0.14935050    0.04650000
opls_145-186    C    0.62643010    0.29344992    0.14926036    -0.09920000
opls_145-187    C    0.04146006    0.67741008    0.49681983    -0.10210000
opls_145-188    C    0.04082014    0.63549000    0.49742956    0.06090000
opls_142-189    C    0.08283992    0.63249003    0.49725990    0.08580000
opls_145-190    C    0.16541006    0.66724004    0.48085003    0.26670000
opls_145-191    C    0.20641987    0.70737993    0.51054049    -0.13060000
opls_145-192    C    0.24808996    0.70761013    0.51090952    -0.10290000
opls_700-193    C    0.24934016    0.66739004    0.48101015    0.11230000
opls_145-194    C    0.20818004    0.62730015    0.44863048    -0.10210000
opls_145-195    C    0.16672993    0.62726994    0.44724028    -0.13900000
opls_145-196    C    0.29319024    0.66706018    0.48268984    0.04650000
opls_145-197    C    0.29308995    0.62679009    0.48259971    -0.09920000
opls_145-198    C    0.33332995    0.26242002    0.16667020    -0.09950000
opls_145-199    C    0.33333013    0.34415013    0.16667020    -0.07630000
opls_145-200    C    0.00000010    0.59575011    0.50000000    -0.09950000
opls_145-201    C    0.99999981    0.67747987    0.50000000    -0.07490000
opls_145-202    C    0.73758009    0.07091007    0.16667020    -0.09950000
opls_145-203    C    0.65584986    0.98917997    0.16667020    -0.08170000
opls_145-204    C    0.40424999    0.40424989    0.50000000    -0.09950000
opls_145-205    C    0.32251994    0.32252013    0.50000000    -0.07630000
opls_145-206    C    0.92908997    0.66666991    0.16667020    -0.09940000
opls_145-207    C    0.01082002    0.66666991    0.16667020    -0.08170000
opls_145-208    C    0.59574990    0.00000000    0.50000000    -0.09950000
opls_145-209    C    0.67747995    0.00000000    0.50000000    -0.07490000
opls_145-210    C    0.26242006    0.33333009    0.83332980    -0.09950000
opls_145-211    C    0.34415011    0.33333009    0.83332980    -0.07630000
opls_145-212    C    0.07090993    0.73757998    0.83332980    -0.09950000
opls_145-213    C    0.98918000    0.65584987    0.83332980    -0.08170000
opls_145-214    C    0.66667001    0.92908993    0.83332980    -0.09950000
opls_145-215    C    0.66666989    0.01082003    0.83332980    -0.08170000
opls_750-216    N    0.45668994    0.33507001    0.15066965    -0.23750000
opls_750-217    N    0.12336010    0.66840010    0.48400051    -0.23550000
opls_750-218    N    0.79002009    0.00173991    0.81733985    -0.23750000
opls_750-219    N    0.66492989    0.12162000    0.15066965    -0.23410000
opls_750-220    N    0.33160005    0.45495009    0.48400051    -0.23410000
opls_750-221    N    0.99826004    0.78828991    0.81733985    -0.23410000
opls_750-222    N    0.87837986    0.54331000    0.15066965    -0.23600000
opls_750-223    N    0.54505002    0.87664009    0.48400051    -0.23750000
opls_750-224    N    0.21171000    0.20997990    0.81733985    -0.23610000
opls_750-225    N    0.33506986    0.45669000    0.84933035    -0.23750000
opls_750-226    N    0.00174002    0.79002010    0.18266015    -0.23750000
opls_750-227    N    0.66840001    0.12335991    0.51599949    -0.23550000
opls_750-228    N    0.12161994    0.66492999    0.84933035    -0.23410000
opls_750-229    N    0.78829010    0.99826009    0.18266015    -0.23410000
opls_750-230    N    0.45495008    0.33159990    0.51599949    -0.23410000
opls_750-231    N    0.54330990    0.87838000    0.84933035    -0.23610000
opls_750-232    N    0.20998005    0.21171009    0.18266015    -0.23600000
opls_750-233    N    0.87664004    0.54504991    0.51599949    -0.23750000
opls_146-234    H    0.25782014    0.30209012    0.17290966    0.05440000
opls_144-235    H    0.25270015    0.18383016    0.15765034    0.05410000
opls_146-236    H    0.12716011    0.20084006    0.13190036    0.05420000
opls_146-237    H    0.05203015    0.12590016    0.13114005    0.05410000
opls_146-238    H    0.12492997    0.05264984    0.24348006    0.05410000
opls_146-239    H    0.19950000    0.12740987    0.24805998    0.05470000
opls_146-240    H    0.07409001    0.00043993    0.18422956    0.04920000
opls_146-241    H    0.92448982    0.63541986    0.50624052    0.05440000
opls_144-242    H    0.91936983    0.51715990    0.49098014    0.05410000
opls_146-243    H    0.79382997    0.53417015    0.46523016    0.05410000
opls_146-244    H    0.71869983    0.45922991    0.46446985    0.05410000
opls_146-245    H    0.79159983    0.38597993    0.57680986    0.05410000
opls_146-246    H    0.86616986    0.46073997    0.58138978    0.05470000
opls_146-247    H    0.74075986    0.33377002    0.51756042    0.04920000
opls_146-248    H    0.59114998    0.96876003    0.83957986    0.05440000
opls_144-249    H    0.58602999    0.85050006    0.82431948    0.05410000
opls_146-250    H    0.46048995    0.86750997    0.79856950    0.05410000
opls_146-251    H    0.38535999    0.79257007    0.79781025    0.05410000
opls_146-252    H    0.45825998    0.71932009    0.91015026    0.05410000
opls_146-253    H    0.53283002    0.79408013    0.91473018    0.05470000
opls_146-254    H    0.40742002    0.66711018    0.85089976    0.04920000
opls_146-255    H    0.69790996    0.95572994    0.17290966    0.05440000
opls_144-256    H    0.81616994    0.06887016    0.15765034    0.05410000
opls_146-257    H    0.79916022    0.92632016    0.13190036    0.05410000
opls_146-258    H    0.87410004    0.92612988    0.13114005    0.05410000
opls_146-259    H    0.94735003    0.07227985    0.24348006    0.05410000
opls_146-260    H    0.87258998    0.07208992    0.24805998    0.05470000
opls_146-261    H    0.99956010    0.07364998    0.18422956    0.04920000
opls_146-262    H    0.36458012    0.28906004    0.50624052    0.05440000
opls_144-263    H    0.48283993    0.40219991    0.49098014    0.05420000
opls_146-264    H    0.46582991    0.25964991    0.46523016    0.05410000
opls_146-265    H    0.54076990    0.25945998    0.46446985    0.05410000
opls_146-266    H    0.61401989    0.40560995    0.57680986    0.05410000
opls_146-267    H    0.53926013    0.40542002    0.58138978    0.05470000
opls_146-268    H    0.66622996    0.40698007    0.51756042    0.04920000
opls_146-269    H    0.03123980    0.62239985    0.83957986    0.05440000
opls_144-270    H    0.14950008    0.73554007    0.82431948    0.05410000
opls_146-271    H    0.13249007    0.59299007    0.79856950    0.05410000
opls_146-272    H    0.20743006    0.59280014    0.79781025    0.05410000
opls_146-273    H    0.28068005    0.73895011    0.91015026    0.05410000
opls_146-274    H    0.20591999    0.73876018    0.91473018    0.05470000
opls_146-275    H    0.33288994    0.74031989    0.85089976    0.04920000
opls_146-276    H    0.04426990    0.74217994    0.17290966    0.05440000
opls_144-277    H    0.93113008    0.74730003    0.15765034    0.05410000
opls_146-278    H    0.07368014    0.87284013    0.13190036    0.05410000
opls_146-279    H    0.07387011    0.94796995    0.13114005    0.05410000
opls_146-280    H    0.92772012    0.87506996    0.24348006    0.05410000
opls_146-281    H    0.92790985    0.80049986    0.24805998    0.05470000
opls_146-282    H    0.92635019    0.92591010    0.18422956    0.04920000
opls_146-283    H    0.71094006    0.07551003    0.50624052    0.05440000
opls_144-284    H    0.59779994    0.08063012    0.49098014    0.05410000
opls_146-285    H    0.74034983    0.20616987    0.46523016    0.05410000
opls_146-286    H    0.74053997    0.28130004    0.46446985    0.05410000
opls_146-287    H    0.59438998    0.20840006    0.57680986    0.05410000
opls_146-288    H    0.59458001    0.13382995    0.58138978    0.05480000
opls_146-289    H    0.59301988    0.25923984    0.51756042    0.04920000
opls_146-290    H    0.37760005    0.40884984    0.83957986    0.05440000
opls_144-291    H    0.26445993    0.41396993    0.82431948    0.05410000
opls_146-292    H    0.40700998    0.53951003    0.79856950    0.05410000
opls_146-293    H    0.40719995    0.61463986    0.79781025    0.05410000
opls_146-294    H    0.26104997    0.54173987    0.91015026    0.05410000
opls_146-295    H    0.26124016    0.46717011    0.91473018    0.05470000
opls_146-296    H    0.25968004    0.59258000    0.85089976    0.04920000
opls_146-297    H    0.30208997    0.25782006    0.82709034    0.05440000
opls_144-298    H    0.18383006    0.25269997    0.84234966    0.05410000
opls_146-299    H    0.20084002    0.12715987    0.86809964    0.05410000
opls_146-300    H    0.12590016    0.05203005    0.86885995    0.05410000
opls_146-301    H    0.05265016    0.12493004    0.75651994    0.05410000
opls_146-302    H    0.12740999    0.19950014    0.75194002    0.05470000
opls_146-303    H    0.00044010    0.07408990    0.81577044    0.04930000
opls_146-304    H    0.96876013    0.59115016    0.16042014    0.05440000
opls_144-305    H    0.85049992    0.58603007    0.17568052    0.05410000
opls_146-306    H    0.86750987    0.46048997    0.20143050    0.05410000
opls_146-307    H    0.79257001    0.38536014    0.20218975    0.05410000
opls_146-308    H    0.71932002    0.45826013    0.08984974    0.05410000
opls_146-309    H    0.79407998    0.53282989    0.08526982    0.05470000
opls_146-310    H    0.66710996    0.40742000    0.14910024    0.04920000
opls_146-311    H    0.63542011    0.92448997    0.49375948    0.05440000
opls_144-312    H    0.51715990    0.91936988    0.50901986    0.05410000
opls_146-313    H    0.53417003    0.79383013    0.53476984    0.05410000
opls_146-314    H    0.45923000    0.71869996    0.53553015    0.05410000
opls_146-315    H    0.38598000    0.79159994    0.42319014    0.05410000
opls_146-316    H    0.46074013    0.86617005    0.41861022    0.05470000
opls_146-317    H    0.33377012    0.74076016    0.48243958    0.04920000
opls_146-318    H    0.95573002    0.69790988    0.82709034    0.05440000
opls_144-319    H    0.06887016    0.81617019    0.84234966    0.05410000
opls_146-320    H    0.92632005    0.79915994    0.86809964    0.05410000
opls_146-321    H    0.92613016    0.87410018    0.86885995    0.05410000
opls_146-322    H    0.07228013    0.94735016    0.75651994    0.05410000
opls_146-323    H    0.07209013    0.87259013    0.75194002    0.05470000
opls_146-324    H    0.07365008    0.99956007    0.81577044    0.04920000
opls_146-325    H    0.62239988    0.03123997    0.16042014    0.05440000
opls_144-326    H    0.73553985    0.14949994    0.17568052    0.05420000
opls_146-327    H    0.59298990    0.13249003    0.20143050    0.05410000
opls_146-328    H    0.59279984    0.20742993    0.20218975    0.05410000
opls_146-329    H    0.73894982    0.28067991    0.08984974    0.05410000
opls_146-330    H    0.73875981    0.20591987    0.08526982    0.05470000
opls_146-331    H    0.74031994    0.33289017    0.14910024    0.04920000
opls_146-332    H    0.28906004    0.36458014    0.49375948    0.05440000
opls_144-333    H    0.40220001    0.48284010    0.50901986    0.05410000
opls_146-334    H    0.25964989    0.46582985    0.53476984    0.05410000
opls_146-335    H    0.25946000    0.54077009    0.53553015    0.05410000
opls_146-336    H    0.40560998    0.61402007    0.42319014    0.05410000
opls_146-337    H    0.40541997    0.53926003    0.41861022    0.05470000
opls_146-338    H    0.40697992    0.66622998    0.48243958    0.04920000
opls_146-339    H    0.74218001    0.04427006    0.82709034    0.05440000
opls_144-340    H    0.74729995    0.93113018    0.84234966    0.05410000
opls_146-341    H    0.87284006    0.07367984    0.86809964    0.05410000
opls_146-342    H    0.94797016    0.07387012    0.86885995    0.05410000
opls_146-343    H    0.87507018    0.92772015    0.75651994    0.05410000
opls_146-344    H    0.80050005    0.92791008    0.75194002    0.05470000
opls_146-345    H    0.92591012    0.92635002    0.81577044    0.04920000
opls_146-346    H    0.40885017    0.37760015    0.16042014    0.05440000
opls_144-347    H    0.41396994    0.26445993    0.17568052    0.05410000
opls_146-348    H    0.53950992    0.40700993    0.20143050    0.05410000
opls_146-349    H    0.61463984    0.40719986    0.20218975    0.05410000
opls_146-350    H    0.54173987    0.26104989    0.08984974    0.05410000
opls_146-351    H    0.46717021    0.26124017    0.08526982    0.05470000
opls_146-352    H    0.59257998    0.25968011    0.14910024    0.04930000
opls_146-353    H    0.07550985    0.71093996    0.49375948    0.05440000
opls_144-354    H    0.08063009    0.59780009    0.50901986    0.05410000
opls_146-355    H    0.20617008    0.74035009    0.53476984    0.05410000
opls_146-356    H    0.28130000    0.74054002    0.53553015    0.05410000
opls_146-357    H    0.20840002    0.59439005    0.42319014    0.05410000
opls_146-358    H    0.13382989    0.59457998    0.41861022    0.05470000
opls_146-359    H    0.25923996    0.59301993    0.48243958    0.04920000
opls_146-360    H    0.33332992    0.37795987    0.16667020    0.04920000
opls_146-361    H    0.33332997    0.22860993    0.16667020    0.04920000
opls_146-362    H    0.00000008    0.71128996    0.50000000    0.04930000
opls_146-363    H    0.00000013    0.56194002    0.50000000    0.04920000
opls_146-364    H    0.62204004    0.95536988    0.16667020    0.04920000
opls_146-365    H    0.77139020    0.10472016    0.16667020    0.04920000
opls_146-366    H    0.28871012    0.28871004    0.50000000    0.04920000
opls_146-367    H    0.43806011    0.43805998    0.50000000    0.04920000
opls_146-368    H    0.04462986    0.66666991    0.16667020    0.04920000
opls_146-369    H    0.89527982    0.66666991    0.16667020    0.04920000
opls_146-370    H    0.71129009    0.00000000    0.50000000    0.04920000
opls_146-371    H    0.56194006    0.00000000    0.50000000    0.04920000
opls_146-372    H    0.37795995    0.33333009    0.83332980    0.04920000
opls_146-373    H    0.22860992    0.33333009    0.83332980    0.04920000
opls_146-374    H    0.95537006    0.62204013    0.83332980    0.04920000
opls_146-375    H    0.10472004    0.77139007    0.83332980    0.04920000
opls_146-376    H    0.66667016    0.04463012    0.83332980    0.04920000
opls_146-377    H    0.66667021    0.89528018    0.83332980    0.04920000
