#======================================================================
# Crystal Data Generated By AuToFF
#----------------------------------------------------------------------

data_AuToFF_phase_1

_cell_length_a                         29.0187
_cell_length_b                         29.0187
_cell_length_c                         6.1962
_cell_angle_alpha                      90.00
_cell_angle_beta                       90.00
_cell_angle_gamma                      120.00
_symmetry_space_group_name_H-M_alt     'P 1'
_symmetry_space_group_IT_number        1

loop_
_space_group_symop_operation_xyz
   'x, y, z'

loop_
   _atom_site_label
   _atom_site_type_symbol
   _atom_site_fract_x
   _atom_site_fract_y
   _atom_site_fract_z
   _atom_site_charge
opls_145-0    C    0.48580018    0.15594011    0.50005971    -0.12620000
opls_145-1    C    0.55652012    0.13640999    0.50024047    -0.13760000
opls_700-2    C    0.54104011    0.17551997    0.50027920    0.05800000
opls_142-3    C    0.58171993    0.23181991    0.49991931    0.02470000
opls_145-4    C    0.82448014    0.44914016    0.49903005    -0.13490000
opls_145-5    C    0.87861998    0.46698988    0.49994029    -0.12970000
opls_700-6    C    0.91756014    0.52139018    0.49995965    0.06100000
opls_145-7    C    0.89792002    0.55694994    0.50004035    -0.12570000
opls_145-8    C    0.84400010    0.53967999    0.50000000    -0.13240000
opls_700-9    C    0.80534003    0.48514997    0.49907040    0.05040000
opls_142-10    C    0.14524004    0.59667987    0.49995965    0.02470000
opls_302-11    C    0.27995983    0.69953997    0.50006940    0.38410000
opls_145-12    C    0.36507000    0.57388008    0.50015009    -0.13120000
opls_145-13    C    0.38291987    0.53769996    0.50040025    -0.12280000
opls_700-14    C    0.43731000    0.55319003    0.49993060    0.05980000
opls_145-15    C    0.47287007    0.60849002    0.49994997    -0.12460000
opls_145-16    C    0.45546994    0.64508993    0.50020981    -0.13830000
opls_700-17    C    0.40078993    0.62902010    0.50010006    0.05080000
opls_142-18    C    0.38446013    0.66911014    0.50005971    0.02620000
opls_142-19    C    0.50975001    0.39868998    0.50001937    0.02470000
opls_302-20    C    0.61387008    0.36619019    0.49967077    0.38350000
opls_142-21    C    0.74914023    0.46992013    0.49938995    -0.01180000
opls_145-22    C    0.44917005    0.10201015    0.49998063    -0.12920000
opls_700-23    C    0.46433019    0.06276011    0.50004035    0.05980000
opls_145-24    C    0.51959008    0.08245019    0.50010974    -0.12480000
opls_142-25    C    0.31075005    0.83556001    0.50000968    0.02470000
opls_145-26    C    0.42067018    0.45894004    0.49998063    -0.12590000
opls_145-27    C    0.43834016    0.42250008    0.50006940    -0.13870000
opls_700-28    C    0.49304993    0.43841991    0.50005971    0.05050000
opls_145-29    C    0.52836999    0.49370994    0.50005003    -0.12410000
opls_145-30    C    0.51046019    0.52979018    0.50005003    -0.12440000
opls_700-31    C    0.45597982    0.51426987    0.49986927    0.06130000
opls_145-32    C    0.99641008    0.50628011    0.49980956    -0.12970000
opls_145-33    C    0.05083016    0.52516998    0.49990962    -0.13870000
opls_700-34    C    0.08870989    0.58014009    0.50000968    0.05660000
opls_145-35    C    0.06768013    0.61456023    0.50005971    -0.12570000
opls_145-36    C    0.01343009    0.59541012    0.50009038    -0.12440000
opls_700-37    C    0.97537003    0.54067000    0.49994029    0.06130000
opls_145-38    C    0.37005993    0.98480001    0.49995965    -0.13140000
opls_145-39    C    0.44124000    0.96639002    0.50006940    -0.12360000
opls_700-40    C    0.42550015    0.00524016    0.50001937    0.06140000
opls_145-41    C    0.33381995    0.93065995    0.49998063    -0.13860000
opls_700-42    C    0.34997986    0.89200002    0.50001937    0.05050000
opls_145-43    C    0.40539024    0.91237014    0.50005971    -0.12570000
opls_145-44    C    0.48580018    0.15594011    0.00005971    -0.12620000
opls_145-45    C    0.55652012    0.13640999    0.00024047    -0.13760000
opls_700-46    C    0.54104011    0.17551997    0.00027920    0.05800000
opls_142-47    C    0.58171993    0.23181991    0.99991931    0.02470000
opls_145-48    C    0.82448014    0.44914016    0.99903005    -0.13490000
opls_145-49    C    0.87861998    0.46698988    0.99994029    -0.12970000
opls_700-50    C    0.91756014    0.52139018    0.99995965    0.06100000
opls_145-51    C    0.89792002    0.55694994    0.00004035    -0.12570000
opls_145-52    C    0.84400010    0.53967999    0.00000000    -0.13240000
opls_700-53    C    0.80534003    0.48514997    0.99907040    0.05040000
opls_142-54    C    0.14524004    0.59667987    0.99995965    0.02470000
opls_302-55    C    0.27995983    0.69953997    0.00006940    0.38410000
opls_145-56    C    0.36507000    0.57388008    0.00015009    -0.13120000
opls_145-57    C    0.38291987    0.53769996    0.00040025    -0.12290000
opls_700-58    C    0.43731000    0.55319003    0.99993060    0.05980000
opls_145-59    C    0.47287007    0.60849002    0.99994997    -0.12460000
opls_145-60    C    0.45546994    0.64508993    0.00020981    -0.13830000
opls_700-61    C    0.40078993    0.62902010    0.00010006    0.05070000
opls_142-62    C    0.38446013    0.66911014    0.00005971    0.02620000
opls_142-63    C    0.50975001    0.39868998    0.00001937    0.02470000
opls_302-64    C    0.61387008    0.36619019    0.99967077    0.38350000
opls_142-65    C    0.74914023    0.46992013    0.99938995    -0.01180000
opls_145-66    C    0.44917005    0.10201015    0.99998063    -0.12920000
opls_700-67    C    0.46433019    0.06276011    0.00004035    0.05980000
opls_145-68    C    0.51959008    0.08245019    0.00010974    -0.12480000
opls_142-69    C    0.31075005    0.83556001    0.00000968    0.02470000
opls_145-70    C    0.42067018    0.45894004    0.99998063    -0.12590000
opls_145-71    C    0.43834016    0.42250008    0.00006940    -0.13870000
opls_700-72    C    0.49304993    0.43841991    0.00005971    0.05050000
opls_145-73    C    0.52836999    0.49370994    0.00005003    -0.12410000
opls_145-74    C    0.51046019    0.52979018    0.00005003    -0.12440000
opls_700-75    C    0.45597982    0.51426987    0.99986927    0.06130000
opls_145-76    C    0.99641008    0.50628011    0.99980956    -0.12970000
opls_145-77    C    0.05083016    0.52516998    0.99990962    -0.13870000
opls_700-78    C    0.08870989    0.58014009    0.00000968    0.05660000
opls_145-79    C    0.06768013    0.61456023    0.00005971    -0.12570000
opls_145-80    C    0.01343009    0.59541012    0.00009038    -0.12440000
opls_700-81    C    0.97537003    0.54067000    0.99994029    0.06140000
opls_145-82    C    0.37005993    0.98480001    0.99995965    -0.13140000
opls_145-83    C    0.44124000    0.96639002    0.00006940    -0.12360000
opls_700-84    C    0.42550015    0.00524016    0.00001937    0.06140000
opls_145-85    C    0.33381995    0.93065995    0.99998063    -0.13860000
opls_700-86    C    0.34997986    0.89200002    0.00001937    0.05050000
opls_145-87    C    0.40539024    0.91237014    0.00005971    -0.12570000
opls_238-88    N    0.27726006    0.74541014    0.50011943    -0.26590000
opls_238-89    N    0.32876022    0.70331022    0.50046964    -0.24500000
opls_238-90    N    0.23507013    0.65126002    0.49981924    -0.26860000
opls_750-91    N    0.33565019    0.65986018    0.49957070    -0.17190000
opls_750-92    N    0.32074978    0.79609987    0.50030018    -0.18620000
opls_750-93    N    0.18483990    0.64592994    0.49996934    -0.19400000
opls_238-94    N    0.61708995    0.32152013    0.49921081    -0.21900000
opls_238-95    N    0.56551987    0.36423005    0.50015009    -0.26020000
opls_238-96    N    0.65908014    0.41507019    0.49984991    -0.26090000
opls_750-97    N    0.55885016    0.40800002    0.50031955    -0.18350000
opls_750-98    N    0.57209986    0.27151005    0.50034053    -0.19400000
opls_750-99    N    0.70912015    0.42164019    0.49704980    -0.12560000
opls_238-100    N    0.27726006    0.74541014    0.00011943    -0.26590000
opls_238-101    N    0.32876022    0.70331022    0.00046964    -0.24490000
opls_238-102    N    0.23507013    0.65126002    0.99981924    -0.26860000
opls_750-103    N    0.33565019    0.65986018    0.99957070    -0.17190000
opls_750-104    N    0.32074978    0.79609987    0.00030018    -0.18610000
opls_750-105    N    0.18483990    0.64592994    0.99996934    -0.19400000
opls_238-106    N    0.61708995    0.32152013    0.99920919    -0.21900000
opls_238-107    N    0.56551987    0.36423005    0.00015009    -0.26010000
opls_238-108    N    0.65908014    0.41507019    0.99984991    -0.26090000
opls_750-109    N    0.55885016    0.40800002    0.00031955    -0.18350000
opls_750-110    N    0.57209986    0.27151005    0.00034053    -0.19400000
opls_750-111    N    0.70912015    0.42164019    0.99704980    -0.12560000
opls_146-112    H    0.47179998    0.18439986    0.49999032    0.10410000
opls_146-113    H    0.59857996    0.14823009    0.50025015    0.10010000
opls_144-114    H    0.62309006    0.23997998    0.49944966    0.06020000
opls_146-115    H    0.79605019    0.40646009    0.49872987    0.10040000
opls_146-116    H    0.89047998    0.43685013    0.50026952    0.10330000
opls_146-117    H    0.92558021    0.59959023    0.50011943    0.10450000
opls_146-118    H    0.83190005    0.56976005    0.50046964    0.10150000
opls_144-119    H    0.15369011    0.56363016    0.50010974    0.05920000
opls_910-120    H    0.23921001    0.73914018    0.49994997    0.21680000
opls_910-121    H    0.36035002    0.74153006    0.49999032    0.22430000
opls_910-122    H    0.23971988    0.61741010    0.50001937    0.24890000
opls_146-123    H    0.32216992    0.55899006    0.49991931    0.08960000
opls_146-124    H    0.35258018    0.49580020    0.50020981    0.10370000
opls_146-125    H    0.51552997    0.62346002    0.49990962    0.10400000
opls_146-126    H    0.48550999    0.68728018    0.50008069    0.10120000
opls_144-127    H    0.41816003    0.71059010    0.50045028    0.03480000
opls_144-128    H    0.47614006    0.35729000    0.49978051    0.05460000
opls_910-129    H    0.65695986    0.32537992    0.50131048    0.23300000
opls_910-130    H    0.53348987    0.32634009    0.50010006    0.22480000
opls_910-131    H    0.65274016    0.44684021    0.49990962    0.23020000
opls_144-132    H    0.74222011    0.50417991    0.50214970    0.03510000
opls_146-133    H    0.40717016    0.09011008    0.49993060    0.10330000
opls_146-134    H    0.53435001    0.05458015    0.50008069    0.10320000
opls_144-135    H    0.26917998    0.82725987    0.49984991    0.04180000
opls_146-136    H    0.37799014    0.44396009    0.50004035    0.10290000
opls_146-137    H    0.40826015    0.38032019    0.50005003    0.10150000
opls_146-138    H    0.57090992    0.50818016    0.49993060    0.10460000
opls_146-139    H    0.54017013    0.57187020    0.49999032    0.10520000
opls_146-140    H    0.96953018    0.46342018    0.49969013    0.10160000
opls_146-141    H    0.06428000    0.49616986    0.49989994    0.10010000
opls_146-142    H    0.09463992    0.65736007    0.50015009    0.10410000
opls_146-143    H    0.00004998    0.62432986    0.50024047    0.10500000
opls_146-144    H    0.35479985    0.01229003    0.49990962    0.10200000
opls_146-145    H    0.48332020    0.97882012    0.50010974    0.10470000
opls_146-146    H    0.29157007    0.91829988    0.49995965    0.10190000
opls_146-147    H    0.42011998    0.88451004    0.50010006    0.10460000
opls_146-148    H    0.47179998    0.18439986    0.99999032    0.10410000
opls_146-149    H    0.59857996    0.14823009    0.00025015    0.10000000
opls_144-150    H    0.62309006    0.23997998    0.99944966    0.06020000
opls_146-151    H    0.79605019    0.40646009    0.99872987    0.10040000
opls_146-152    H    0.89047998    0.43685013    0.00026952    0.10330000
opls_146-153    H    0.92558021    0.59959023    0.00011943    0.10450000
opls_146-154    H    0.83190005    0.56976005    0.00046964    0.10150000
opls_144-155    H    0.15369011    0.56363016    0.00010974    0.05920000
opls_910-156    H    0.23921001    0.73914018    0.99994997    0.21680000
opls_910-157    H    0.36035002    0.74153006    0.99999032    0.22430000
opls_910-158    H    0.23971988    0.61741010    0.00001937    0.24890000
opls_146-159    H    0.32216992    0.55899006    0.99991931    0.08960000
opls_146-160    H    0.35258018    0.49580020    0.00020981    0.10370000
opls_146-161    H    0.51552997    0.62346002    0.99990962    0.10410000
opls_146-162    H    0.48550999    0.68728018    0.00008069    0.10110000
opls_144-163    H    0.41816003    0.71059010    0.00045028    0.03480000
opls_144-164    H    0.47614006    0.35729000    0.99978051    0.05460000
opls_910-165    H    0.65695986    0.32537992    0.00131048    0.23300000
opls_910-166    H    0.53348987    0.32634009    0.00010006    0.22480000
opls_910-167    H    0.65274016    0.44684021    0.99990962    0.23030000
opls_144-168    H    0.74222011    0.50417991    0.00214970    0.03510000
opls_146-169    H    0.40717016    0.09011008    0.99993060    0.10330000
opls_146-170    H    0.53435001    0.05458015    0.00008069    0.10320000
opls_144-171    H    0.26917998    0.82725987    0.99984991    0.04180000
opls_146-172    H    0.37799014    0.44396009    0.00004035    0.10290000
opls_146-173    H    0.40826015    0.38032019    0.00005003    0.10150000
opls_146-174    H    0.57090992    0.50818016    0.99993060    0.10460000
opls_146-175    H    0.54017013    0.57187020    0.99999032    0.10530000
opls_146-176    H    0.96953018    0.46342018    0.99969013    0.10160000
opls_146-177    H    0.06428000    0.49616986    0.99989994    0.10000000
opls_146-178    H    0.09463992    0.65736007    0.00015009    0.10410000
opls_146-179    H    0.00004998    0.62432986    0.00024047    0.10500000
opls_146-180    H    0.35479985    0.01229003    0.99990962    0.10200000
opls_146-181    H    0.48332020    0.97882012    0.00010974    0.10470000
opls_146-182    H    0.29157007    0.91829988    0.99995965    0.10190000
opls_146-183    H    0.42011998    0.88451004    0.00010006    0.10460000
