#======================================================================
# Crystal Data Generated By AuToFF
#----------------------------------------------------------------------

data_AuToFF_phase_1

_cell_length_a                         36.2909
_cell_length_b                         36.2909
_cell_length_c                         3.7994
_cell_angle_alpha                      90.00
_cell_angle_beta                       90.00
_cell_angle_gamma                      120.00
_symmetry_space_group_name_H-M_alt     'P 1'
_symmetry_space_group_IT_number        1

loop_
_space_group_symop_operation_xyz
   'x, y, z'

loop_
   _atom_site_label
   _atom_site_type_symbol
   _atom_site_fract_x
   _atom_site_fract_y
   _atom_site_fract_z
   _atom_site_charge
opls_166-0    C    0.52004005    0.54687987    0.05170027    0.17210000
opls_145-1    C    0.47694981    0.52010987    0.06064115    0.00140000
opls_142-2    C    0.44720007    0.53525997    0.06702900    0.08790000
opls_145-3    C    0.43324000    0.59215008    0.02081908    0.16520000
opls_145-4    C    0.39361009    0.57251015    0.17478023    -0.24170000
opls_145-5    C    0.37011009    0.59201994    0.17719903    -0.23440000
opls_700-6    C    0.38523010    0.63133001    0.02074012    0.07040000
opls_145-7    C    0.42502994    0.65066003    0.86722114    -0.23440000
opls_145-8    C    0.44883001    0.63151010    0.87310102    -0.24210000
opls_181-9    C    0.57365997    0.61545988    0.87272990    -0.23390000
opls_145-10    C    0.35983001    0.65201993    0.01968995    0.03260000
opls_145-11    C    0.31651993    0.62862995    0.01956098    -0.15500000
opls_145-12    C    0.46117002    0.47738001    0.06160973    -0.26490000
opls_166-13    C    0.45312010    0.97316000    0.05170027    0.17210000
opls_145-14    C    0.47989005    0.95683996    0.06064115    0.00140000
opls_142-15    C    0.46474003    0.91194012    0.06702900    0.08790000
opls_145-16    C    0.40785003    0.84108990    0.02081908    0.16520000
opls_145-17    C    0.42749005    0.82109998    0.17478023    -0.24170000
opls_145-18    C    0.40798011    0.77809012    0.17719903    -0.23440000
opls_700-19    C    0.36866992    0.75389992    0.02074012    0.07040000
opls_145-20    C    0.34933996    0.77436997    0.86722114    -0.23440000
opls_145-21    C    0.36848988    0.81732002    0.87310102    -0.24210000
opls_181-22    C    0.38454002    0.95820018    0.87272990    -0.23390000
opls_145-23    C    0.34798014    0.70781009    0.01968995    0.03250000
opls_145-24    C    0.37137014    0.68789017    0.01956098    -0.15500000
opls_145-25    C    0.52262008    0.98379005    0.06160973    -0.26490000
opls_166-26    C    0.02684013    0.47996013    0.05170027    0.17210000
opls_145-27    C    0.04316015    0.52305017    0.06064115    0.00140000
opls_142-28    C    0.08805990    0.55279991    0.06702900    0.08790000
opls_145-29    C    0.15890996    0.56676002    0.02081908    0.16520000
opls_145-30    C    0.17890002    0.60639018    0.17478023    -0.24170000
opls_145-31    C    0.22191007    0.62988994    0.17719903    -0.23440000
opls_700-32    C    0.24609997    0.61477006    0.02074012    0.07040000
opls_145-33    C    0.22563010    0.57497000    0.86722114    -0.23440000
opls_145-34    C    0.18267983    0.55116988    0.87310102    -0.24210000
opls_181-35    C    0.04180002    0.42633995    0.87272990    -0.23390000
opls_145-36    C    0.29219012    0.64016998    0.01968995    0.03250000
opls_145-37    C    0.31210993    0.68347989    0.01956098    -0.15500000
opls_145-38    C    0.01620990    0.53882994    0.06160973    -0.26490000
opls_166-39    C    0.47995995    0.45312013    0.05170027    0.17210000
opls_145-40    C    0.52305019    0.47989013    0.06064115    0.00140000
opls_142-41    C    0.55279993    0.46474003    0.06702900    0.08790000
opls_145-42    C    0.56676000    0.40784992    0.02081908    0.16520000
opls_145-43    C    0.60639007    0.42749017    0.17478023    -0.24170000
opls_145-44    C    0.62988991    0.40798006    0.17719903    -0.23440000
opls_700-45    C    0.61476990    0.36866999    0.02074012    0.07040000
opls_145-46    C    0.57497006    0.34933997    0.86722114    -0.23440000
opls_145-47    C    0.55116999    0.36848990    0.87310102    -0.24210000
opls_181-48    C    0.42634003    0.38454012    0.87272990    -0.23390000
opls_145-49    C    0.64016999    0.34798007    0.01968995    0.03250000
opls_145-50    C    0.68348007    0.37137005    0.01956098    -0.15500000
opls_145-51    C    0.53882998    0.52261999    0.06160973    -0.26490000
opls_166-52    C    0.54687990    0.02684000    0.05170027    0.17210000
opls_145-53    C    0.52010995    0.04316004    0.06064115    0.00140000
opls_142-54    C    0.53525997    0.08805988    0.06702900    0.08790000
opls_145-55    C    0.59214997    0.15891010    0.02081908    0.16520000
opls_145-56    C    0.57250995    0.17890002    0.17478023    -0.24160000
opls_145-57    C    0.59201989    0.22190988    0.17719903    -0.23440000
opls_700-58    C    0.63133008    0.24610008    0.02074012    0.07040000
opls_145-59    C    0.65066004    0.22563003    0.86722114    -0.23440000
opls_145-60    C    0.63151012    0.18267998    0.87310102    -0.24210000
opls_181-61    C    0.61546014    0.04180014    0.87272990    -0.23380000
opls_145-62    C    0.65201986    0.29218991    0.01968995    0.03250000
opls_145-63    C    0.62863002    0.31211015    0.01956098    -0.15490000
opls_145-64    C    0.47737992    0.01620995    0.06160973    -0.26490000
opls_166-65    C    0.97315987    0.52003987    0.05170027    0.17210000
opls_145-66    C    0.95684001    0.47695015    0.06064115    0.00140000
opls_142-67    C    0.91194010    0.44720009    0.06702900    0.08790000
opls_145-68    C    0.84109004    0.43323998    0.02081908    0.16520000
opls_145-69    C    0.82110014    0.39361014    0.17478023    -0.24170000
opls_145-70    C    0.77808993    0.37011006    0.17719903    -0.23440000
opls_700-71    C    0.75390003    0.38522994    0.02074012    0.07040000
opls_145-72    C    0.77436990    0.42503000    0.86722114    -0.23440000
opls_145-73    C    0.81732017    0.44883012    0.87310102    -0.24210000
opls_181-74    C    0.95819998    0.57366005    0.87272990    -0.23390000
opls_145-75    C    0.70780988    0.35983002    0.01968995    0.03250000
opls_145-76    C    0.68789007    0.31652011    0.01956098    -0.15490000
opls_145-77    C    0.98379010    0.46117006    0.06160973    -0.26490000
opls_750-78    N    0.45910995    0.57396996    0.01872927    -0.20640000
opls_750-79    N    0.42602999    0.88513989    0.01872927    -0.20660000
opls_750-80    N    0.11486007    0.54089015    0.01872927    -0.20660000
opls_750-81    N    0.54089005    0.42603004    0.01872927    -0.20650000
opls_750-82    N    0.57397001    0.11486011    0.01872927    -0.20660000
opls_750-83    N    0.88514009    0.45911017    0.01872927    -0.20660000
opls_179-84    O    0.53598010    0.58982005    0.06164921    -0.16260000
opls_179-85    O    0.41017991    0.94615996    0.06164921    -0.16250000
opls_179-86    O    0.05383999    0.46401999    0.06164921    -0.16260000
opls_179-87    O    0.46401990    0.41017995    0.06164921    -0.16260000
opls_179-88    O    0.58982009    0.05384004    0.06164921    -0.16260000
opls_179-89    O    0.94616001    0.53598001    0.06164921    -0.16260000
opls_144-90    H    0.41483991    0.51291998    0.09967890    0.09240000
opls_146-91    H    0.38110997    0.54287018    0.30590093    0.18950000
opls_146-92    H    0.34063011    0.57657998    0.31334948    0.18960000
opls_146-93    H    0.43770004    0.68016987    0.73304996    0.18960000
opls_146-94    H    0.47930005    0.64702006    0.75339001    0.18960000
opls_185-95    H    0.59924993    0.63114992    0.06945044    0.07340000
opls_185-96    H    0.57048986    0.63932999    0.72210086    0.08560000
opls_185-97    H    0.58143008    0.59821998    0.67331947    0.05890000
opls_146-98    H    0.30165004    0.59546009    0.01975049    0.18880000
opls_146-99    H    0.42814014    0.45707000    0.07863873    0.18880000
opls_144-100    H    0.48708008    0.90192002    0.09967890    0.09240000
opls_146-101    H    0.45713007    0.83823997    0.30590093    0.18940000
opls_146-102    H    0.42342003    0.76405015    0.31334948    0.18960000
opls_146-103    H    0.31983013    0.75753003    0.73304996    0.18970000
opls_146-104    H    0.35298017    0.83228016    0.75339001    0.18960000
opls_185-105    H    0.36885005    0.96810000    0.06945044    0.07340000
opls_185-106    H    0.36066998    0.93116004    0.72210086    0.08560000
opls_185-107    H    0.40178001    0.98321001    0.67331947    0.05890000
opls_146-108    H    0.40454009    0.70618992    0.01975049    0.18880000
opls_146-109    H    0.54293005    0.97106988    0.07863873    0.18880000
opls_144-110    H    0.09808000    0.58516000    0.09967890    0.09240000
opls_146-111    H    0.16176013    0.61889017    0.30590093    0.18940000
opls_146-112    H    0.23595002    0.65937018    0.31334948    0.18960000
opls_146-113    H    0.24247011    0.56230010    0.73304996    0.18960000
opls_146-114    H    0.16771994    0.52070010    0.75339001    0.18970000
opls_185-115    H    0.03190002    0.40075008    0.06945044    0.07340000
opls_185-116    H    0.06883989    0.42950997    0.72210086    0.08510000
opls_185-117    H    0.01678992    0.41857001    0.67331947    0.05890000
opls_146-118    H    0.29380987    0.69834999    0.01975049    0.18880000
opls_146-119    H    0.02893009    0.57186011    0.07863873    0.18880000
opls_144-120    H    0.58516009    0.48708002    0.09967890    0.09240000
opls_146-121    H    0.61889019    0.45713014    0.30590093    0.18940000
opls_146-122    H    0.65936989    0.42342002    0.31334948    0.18960000
opls_146-123    H    0.56229996    0.31983013    0.73304996    0.18960000
opls_146-124    H    0.52069995    0.35297994    0.75339001    0.18960000
opls_185-125    H    0.40075007    0.36885008    0.06945044    0.07340000
opls_185-126    H    0.42951014    0.36067001    0.72210086    0.08560000
opls_185-127    H    0.41856992    0.40178002    0.67331947    0.05890000
opls_146-128    H    0.69834996    0.40453991    0.01975049    0.18880000
opls_146-129    H    0.57185986    0.54293000    0.07863873    0.18880000
opls_144-130    H    0.51291992    0.09807998    0.09967890    0.09240000
opls_146-131    H    0.54286993    0.16176003    0.30590093    0.18940000
opls_146-132    H    0.57658013    0.23595017    0.31334948    0.18970000
opls_146-133    H    0.68016987    0.24246997    0.73304996    0.18960000
opls_146-134    H    0.64701999    0.16772016    0.75339001    0.18960000
opls_185-135    H    0.63114995    0.03190000    0.06945044    0.07340000
opls_185-136    H    0.63933002    0.06883996    0.72210086    0.08510000
opls_185-137    H    0.59821999    0.01678999    0.67331947    0.05890000
opls_146-138    H    0.59545991    0.29381008    0.01975049    0.18890000
opls_146-139    H    0.45706995    0.02893012    0.07863873    0.18880000
opls_144-140    H    0.90192000    0.41484000    0.09967890    0.09240000
opls_146-141    H    0.83824003    0.38111015    0.30590093    0.18940000
opls_146-142    H    0.76405014    0.34063013    0.31334948    0.18960000
opls_146-143    H    0.75752989    0.43769990    0.73304996    0.18970000
opls_146-144    H    0.83228006    0.47929990    0.75339001    0.18960000
opls_185-145    H    0.96809998    0.59924992    0.06945044    0.07340000
opls_185-146    H    0.93116011    0.57049003    0.72210086    0.08510000
opls_185-147    H    0.98321008    0.58142999    0.67331947    0.05890000
opls_146-148    H    0.70619013    0.30165001    0.01975049    0.18880000
opls_146-149    H    0.97106991    0.42813989    0.07863873    0.18880000
