#======================================================================
# Crystal Data Generated By AuToFF
#----------------------------------------------------------------------

data_AuToFF_phase_1

_cell_length_a                         26.0197
_cell_length_b                         22.7560
_cell_length_c                         4.4394
_cell_angle_alpha                      90.00
_cell_angle_beta                       82.75
_cell_angle_gamma                      90.00
_symmetry_space_group_name_H-M_alt     'P 1'
_symmetry_space_group_IT_number        1

loop_
_space_group_symop_operation_xyz
   'x, y, z'

loop_
   _atom_site_label
   _atom_site_type_symbol
   _atom_site_fract_x
   _atom_site_fract_y
   _atom_site_fract_z
   _atom_site_charge
opls_700-0    C    0.69157004    0.90910002    0.38865009    0.06590000
opls_145-1    C    0.69259004    0.84773994    0.38159953    -0.10930000
opls_700-2    C    0.73161974    0.81559017    0.49342062    -0.03450000
opls_166-3    C    0.77127008    0.84710011    0.61059831    0.22120000
opls_700-4    C    0.77335992    0.90883020    0.59453985    -0.02240000
opls_145-5    C    0.73281994    0.93920988    0.48879973    -0.10300000
opls_700-6    C    0.73166985    0.75013008    0.49353870    -0.05420000
opls_166-7    C    0.68510973    0.71775004    0.52672057    0.22120000
opls_700-8    C    0.68578998    0.65595008    0.53004035    -0.02280000
opls_145-9    C    0.73311985    0.62682985    0.50699946    -0.07350000
opls_700-10    C    0.77956003    0.65787001    0.47530036    0.06590000
opls_145-11    C    0.77822979    0.71907980    0.46173968    -0.14680000
opls_700-12    C    0.64599993    0.94178986    0.30875972    0.06760000
opls_700-13    C    0.81925977    0.94116980    0.67344928    0.06660000
opls_700-14    C    0.63755000    0.62078001    0.54116001    0.06550000
opls_700-15    C    0.82911978    0.62547987    0.46751864    0.06620000
opls_145-16    C    0.83179985    0.57715987    0.65893944    -0.13590000
opls_145-17    C    0.87762006    0.54683995    0.66195949    -0.13020000
opls_700-18    C    0.92191980    0.56293022    0.46803863    0.05800000
opls_145-19    C    0.91913003    0.61092986    0.27426991    -0.12960000
opls_145-20    C    0.87355011    0.64216998    0.27677904    -0.14230000
opls_145-21    C    0.59405995    0.63171999    0.75254036    -0.13280000
opls_145-22    C    0.54928992    0.59928019    0.74770829    -0.12870000
opls_700-23    C    0.54673997    0.55539989    0.53012891    0.06240000
opls_145-24    C    0.59063998    0.54346985    0.32401888    -0.13590000
opls_145-25    C    0.63550977    0.57542011    0.33108987    -0.13680000
opls_145-26    C    0.86885987    0.92050009    0.56624908    -0.13590000
opls_145-27    C    0.91218987    0.95169010    0.61871837    -0.13680000
opls_700-28    C    0.90742999    0.00457989    0.77985926    0.06200000
opls_145-29    C    0.85798983    0.02494990    0.89017941    -0.12930000
opls_145-30    C    0.81447984    0.99370979    0.83678822    -0.12900000
opls_145-31    C    0.65065996    0.99764985    0.17786921    -0.12960000
opls_145-32    C    0.60716997    0.02973018    0.13325885    -0.13030000
opls_700-33    C    0.55760000    0.00715020    0.22146002    0.05910000
opls_145-34    C    0.55300986    0.95047021    0.34341074    -0.13600000
opls_145-35    C    0.59641985    0.91825013    0.38473992    -0.13590000
opls_142-36    C    0.51124010    0.04294999    0.20811052    0.07080000
opls_142-37    C    0.49892993    0.52293022    0.51058945    0.06850000
opls_142-38    C    0.95400971    0.03891018    0.80847020    0.07090000
opls_142-39    C    0.96978000    0.52965987    0.47669912    0.07080000
opls_700-40    C    0.19030011    0.40326991    0.40712912    0.06550000
opls_145-41    C    0.19060983    0.34186984    0.40059856    -0.11090000
opls_700-42    C    0.23123007    0.30936984    0.49216946    -0.03870000
opls_166-43    C    0.27324002    0.34025004    0.58657874    0.22170000
opls_700-44    C    0.27602982    0.40187994    0.56599931    -0.02150000
opls_145-45    C    0.23387008    0.43272983    0.48234864    -0.08740000
opls_700-46    C    0.23076008    0.24395983    0.49514863    -0.03780000
opls_166-47    C    0.18432003    0.21222007    0.56460963    0.22170000
opls_700-48    C    0.18463011    0.15044999    0.57451901    -0.02280000
opls_145-49    C    0.23166998    0.12092020    0.51621854    -0.07500000
opls_700-50    C    0.27807006    0.15132009    0.44599004    0.06580000
opls_145-51    C    0.27682012    0.21255010    0.43160964    -0.11090000
opls_700-52    C    0.14359977    0.43653015    0.35010025    0.06760000
opls_700-53    C    0.32381990    0.43346985    0.61987870    0.06650000
opls_700-54    C    0.13609005    0.11567982    0.62724034    0.06960000
opls_700-55    C    0.32761995    0.11855994    0.39897046    0.06620000
opls_145-56    C    0.33323994    0.06746001    0.56624908    -0.13680000
opls_145-57    C    0.37916009    0.03656003    0.53083964    -0.18750000
opls_145-58    C    0.42131994    0.05600984    0.32827873    0.19500000
opls_145-59    C    0.41566991    0.10665011    0.15630883    -0.16870000
opls_145-60    C    0.36946000    0.13740991    0.19319877    -0.13030000
opls_145-61    C    0.09612971    0.12890007    0.85851891    -0.11940000
opls_145-62    C    0.05031990    0.09735015    0.89000002    -0.16760000
opls_145-63    C    0.04377001    0.05117991    0.69030021    0.21720000
opls_145-64    C    0.08488008    0.03563016    0.47047056    -0.17730000
opls_145-65    C    0.13012977    0.06773994    0.43814020    -0.13710000
opls_145-66    C    0.37212986    0.41078001    0.50187901    -0.14230000
opls_145-67    C    0.41722994    0.44063983    0.53455906    -0.17020000
opls_145-68    C    0.41498982    0.49477017    0.68460981    0.20110000
opls_145-69    C    0.36693992    0.51698014    0.81013009    -0.18040000
opls_145-70    C    0.32194975    0.48697003    0.77487960    -0.13640000
opls_145-71    C    0.14681998    0.49358015    0.23263872    -0.12960000
opls_145-72    C    0.10264989    0.52563016    0.20321033    -0.18040000
opls_145-73    C    0.05373995    0.50195992    0.29858013    0.19340000
opls_145-74    C    0.05015994    0.44407980    0.40522854    -0.16790000
opls_145-75    C    0.09450973    0.41206978    0.42972041    -0.13020000
opls_167-76    O    0.80694981    0.81748989    0.75187958    -0.43270000
opls_167-77    O    0.63899986    0.74681007    0.55062887    -0.43930000
opls_167-78    O    0.31058997    0.30994990    0.71112035    -0.44140000
opls_167-79    O    0.13861992    0.24206012    0.61685866    -0.43650000
opls_750-80    N    0.46645985    0.02150993    0.31363039    -0.30900000
opls_750-81    N    0.99837006    0.01764985    0.69367903    -0.31240000
opls_750-82    N    0.45984986    0.52747979    0.72095933    -0.29920000
opls_750-83    N    0.00960012    0.53690016    0.27377944    -0.30110000
opls_146-84    H    0.85378969    0.06613992    0.01748900    0.09840000
opls_146-85    H    0.68908012    0.01633020    0.11022024    0.09840000
opls_146-86    H    0.61144991    0.07358015    0.03255062    0.12370000
opls_144-87    H    0.51702997    0.08884997    0.12106060    0.04290000
opls_144-88    H    0.94900974    0.08343997    0.91364946    0.04250000
opls_146-89    H    0.66192978    0.82461988    0.28419972    0.10260000
opls_146-90    H    0.73347994    0.98719019    0.48684919    0.10390000
opls_146-91    H    0.73353989    0.57886008    0.51281929    0.10400000
opls_146-92    H    0.81480000    0.74301020    0.42927989    0.10190000
opls_168-93    H    0.82806002    0.84517007    0.85075989    0.33610000
opls_168-94    H    0.61044980    0.71904992    0.55027918    0.32510000
opls_146-95    H    0.79761995    0.56410002    0.81278001    0.10390000
opls_146-96    H    0.87942970    0.50973985    0.81660842    0.09840000
opls_146-97    H    0.95365990    0.62363992    0.12247071    0.10150000
opls_146-98    H    0.87197980    0.67966998    0.12482998    0.10390000
opls_146-99    H    0.59569968    0.66507998    0.92803895    0.10280000
opls_146-100    H    0.51519983    0.60793022    0.91172844    0.10290000
opls_146-101    H    0.58914010    0.50879988    0.15518028    0.10410000
opls_146-102    H    0.66941982    0.56623001    0.16689941    0.10300000
opls_146-103    H    0.87325009    0.88041000    0.43004058    0.10280000
opls_146-104    H    0.95090000    0.93629988    0.52933870    0.10290000
opls_146-105    H    0.77596983    0.01013008    0.92313876    0.10290000
opls_146-106    H    0.51427982    0.93280014    0.41252887    0.10400000
opls_146-107    H    0.59206011    0.87476006    0.48877929    0.10390000
opls_144-108    H    0.49788989    0.49546010    0.30350984    0.04460000
opls_144-109    H    0.96993983    0.49817015    0.66946872    0.04250000
opls_146-110    H    0.15816988    0.31891018    0.32081037    0.10280000
opls_146-111    H    0.23520006    0.48068993    0.47792984    0.10390000
opls_146-112    H    0.23180986    0.07297987    0.52509020    0.10390000
opls_146-113    H    0.31304001    0.23629988    0.37127916    0.10290000
opls_168-114    H    0.33290002    0.33727984    0.80337927    0.33020000
opls_168-115    H    0.10964989    0.21455001    0.63977920    0.32590000
opls_146-116    H    0.30124994    0.05224996    0.73053037    0.10360000
opls_146-117    H    0.38341973    0.99723985    0.66608991    0.10660000
opls_146-118    H    0.44731002    0.12174987    0.98925046    0.10390000
opls_146-119    H    0.36540985    0.17654992    0.05568007    0.10400000
opls_146-120    H    0.10143974    0.16350984    0.02246867    0.09840000
opls_146-121    H    0.01987987    0.10813016    0.07412958    0.10150000
opls_146-122    H    0.08008997    0.99888996    0.31858962    0.10660000
opls_146-123    H    0.16139990    0.05629988    0.26025963    0.10300000
opls_146-124    H    0.37431978    0.36959000    0.37448994    0.10280000
opls_146-125    H    0.45441976    0.42165011    0.44240913    0.10360000
opls_146-126    H    0.36518974    0.55895983    0.92976923    0.10350000
opls_146-127    H    0.28452985    0.50493980    0.87103960    0.10390000
opls_146-128    H    0.18473012    0.51314994    0.16093880    0.10400000
opls_146-129    H    0.10572002    0.57034013    0.11378071    0.10300000
opls_146-130    H    0.01226984    0.42395017    0.47000052    0.10320000
opls_146-131    H    0.09102995    0.36747012    0.52071909    0.10150000
