#======================================================================
# Crystal Data Generated By AuToFF
#----------------------------------------------------------------------

data_AuToFF_phase_1

_cell_length_a                         18.5277
_cell_length_b                         18.5277
_cell_length_c                         25.0000
_cell_angle_alpha                      90.00
_cell_angle_beta                       90.00
_cell_angle_gamma                      90.00
_symmetry_space_group_name_H-M_alt     'P 1'
_symmetry_space_group_IT_number        1

loop_
_space_group_symop_operation_xyz
   'x, y, z'

loop_
   _atom_site_label
   _atom_site_type_symbol
   _atom_site_fract_x
   _atom_site_fract_y
   _atom_site_fract_z
   _atom_site_charge
opls_543-0    C    0.53253993    0.65967983    0.50000000    0.36170000
opls_700-1    C    0.07345974    0.48091992    0.50000000    0.01680000
opls_521-2    C    0.71483994    0.57775979    0.50000000    0.10450000
opls_543-3    C    0.41354027    0.63591973    0.50000000    0.45040000
opls_700-4    C    0.27108977    0.49696023    0.50000000    -0.19570000
opls_700-5    C    0.14659024    0.46234017    0.50000000    -0.05880000
opls_521-6    C    0.19821025    0.52088980    0.50000000    0.13850000
opls_521-7    C    0.83225009    0.61176023    0.50000000    0.12590000
opls_543-8    C    0.46746007    0.34032017    0.50000000    0.36170000
opls_700-9    C    0.92654026    0.51908008    0.50000000    0.01680000
opls_521-10    C    0.28516006    0.42224021    0.50000000    0.10450000
opls_543-11    C    0.58645973    0.36408027    0.50000000    0.45040000
opls_700-12    C    0.72891023    0.50303977    0.50000000    -0.19570000
opls_700-13    C    0.85340976    0.53765983    0.50000000    -0.05880000
opls_521-14    C    0.80178975    0.47911020    0.50000000    0.13850000
opls_521-15    C    0.16774991    0.38823977    0.50000000    0.12590000
opls_543-16    C    0.34032017    0.53253993    0.50000000    0.36170000
opls_700-17    C    0.51908008    0.07345974    0.50000000    0.01680000
opls_521-18    C    0.42224021    0.71483994    0.50000000    0.10450000
opls_543-19    C    0.36408027    0.41354027    0.50000000    0.45040000
opls_700-20    C    0.50303977    0.27108977    0.50000000    -0.19570000
opls_700-21    C    0.53765983    0.14659024    0.50000000    -0.05880000
opls_521-22    C    0.47911020    0.19821025    0.50000000    0.13850000
opls_521-23    C    0.38823977    0.83225009    0.50000000    0.12590000
opls_543-24    C    0.65967983    0.46746007    0.50000000    0.36170000
opls_700-25    C    0.48091992    0.92654026    0.50000000    0.01680000
opls_521-26    C    0.57775979    0.28516006    0.50000000    0.10450000
opls_543-27    C    0.63591973    0.58645973    0.50000000    0.45040000
opls_700-28    C    0.49696023    0.72891023    0.50000000    -0.19570000
opls_700-29    C    0.46234017    0.85340976    0.50000000    -0.05880000
opls_521-30    C    0.52088980    0.80178975    0.50000000    0.13850000
opls_521-31    C    0.61176023    0.16774991    0.50000000    0.12590000
opls_543-32    C    0.96746007    0.15967983    0.50000000    0.36170000
opls_700-33    C    0.42654026    0.98091992    0.50000000    0.01680000
opls_521-34    C    0.78516006    0.07775979    0.50000000    0.10450000
opls_543-35    C    0.08645973    0.13591973    0.50000000    0.45040000
opls_700-36    C    0.22891023    0.99696023    0.50000000    -0.19570000
opls_700-37    C    0.35340976    0.96234017    0.50000000    -0.05880000
opls_521-38    C    0.30178975    0.02088980    0.50000000    0.13850000
opls_521-39    C    0.66774991    0.11176023    0.50000000    0.12590000
opls_543-40    C    0.03253993    0.84032017    0.50000000    0.36170000
opls_700-41    C    0.57345974    0.01908008    0.50000000    0.01680000
opls_521-42    C    0.21483994    0.92224021    0.50000000    0.10450000
opls_543-43    C    0.91354027    0.86408027    0.50000000    0.45040000
opls_700-44    C    0.77108977    0.00303977    0.50000000    -0.19570000
opls_700-45    C    0.64659024    0.03765983    0.50000000    -0.05880000
opls_521-46    C    0.69821025    0.97911020    0.50000000    0.13850000
opls_521-47    C    0.33225009    0.88823977    0.50000000    0.12590000
opls_543-48    C    0.15967983    0.03253993    0.50000000    0.36170000
opls_700-49    C    0.98091992    0.57345974    0.50000000    0.01680000
opls_521-50    C    0.07775979    0.21483994    0.50000000    0.10450000
opls_543-51    C    0.13591973    0.91354027    0.50000000    0.45040000
opls_700-52    C    0.99696023    0.77108977    0.50000000    -0.19570000
opls_700-53    C    0.96234017    0.64659024    0.50000000    -0.05880000
opls_521-54    C    0.02088980    0.69821025    0.50000000    0.13850000
opls_521-55    C    0.11176023    0.33225009    0.50000000    0.12590000
opls_543-56    C    0.84032017    0.96746007    0.50000000    0.36170000
opls_700-57    C    0.01908008    0.42654026    0.50000000    0.01680000
opls_521-58    C    0.92224021    0.78516006    0.50000000    0.10450000
opls_543-59    C    0.86408027    0.08645973    0.50000000    0.45040000
opls_700-60    C    0.00303977    0.22891023    0.50000000    -0.19570000
opls_700-61    C    0.03765983    0.35340976    0.50000000    -0.05880000
opls_521-62    C    0.97911020    0.30178975    0.50000000    0.13850000
opls_521-63    C    0.88823977    0.66774991    0.50000000    0.12590000
opls_531-64    C    0.10881977    0.60881977    0.50000000    0.40460000
opls_700-65    C    0.05404017    0.55404017    0.50000000    -0.06060000
opls_531-66    C    0.89118023    0.39118023    0.50000000    0.40460000
opls_700-67    C    0.94595983    0.44595983    0.50000000    -0.06060000
opls_531-68    C    0.39118023    0.10881977    0.50000000    0.40460000
opls_700-69    C    0.44595983    0.05404017    0.50000000    -0.06060000
opls_531-70    C    0.60881977    0.89118023    0.50000000    0.40460000
opls_700-71    C    0.55404017    0.94595983    0.50000000    -0.06060000
opls_520-72    N    0.17979998    0.59109981    0.50000000    -0.34930000
opls_520-73    N    0.63181021    0.23744987    0.50000000    -0.23500000
opls_750-74    N    0.60375006    0.65031979    0.50000000    -0.34380000
opls_542-75    N    0.48084004    0.60543025    0.50000000    -0.38840000
opls_520-76    N    0.82020002    0.40890019    0.50000000    -0.34930000
opls_520-77    N    0.36818979    0.76255013    0.50000000    -0.23480000
opls_750-78    N    0.39624994    0.34968021    0.50000000    -0.34390000
opls_542-79    N    0.51915996    0.39456975    0.50000000    -0.38840000
opls_520-80    N    0.40890019    0.17979998    0.50000000    -0.34930000
opls_520-81    N    0.76255013    0.63181021    0.50000000    -0.23480000
opls_750-82    N    0.34968021    0.60375006    0.50000000    -0.34380000
opls_542-83    N    0.39456975    0.48084004    0.50000000    -0.38840000
opls_520-84    N    0.59109981    0.82020002    0.50000000    -0.34930000
opls_520-85    N    0.23744987    0.36818979    0.50000000    -0.23480000
opls_750-86    N    0.65031979    0.39624994    0.50000000    -0.34390000
opls_542-87    N    0.60543025    0.51915996    0.50000000    -0.38840000
opls_520-88    N    0.32020002    0.09109981    0.50000000    -0.34930000
opls_520-89    N    0.86818979    0.73744987    0.50000000    -0.23480000
opls_750-90    N    0.89624994    0.15031979    0.50000000    -0.34380000
opls_542-91    N    0.01915996    0.10543025    0.50000000    -0.38840000
opls_520-92    N    0.67979998    0.90890019    0.50000000    -0.34930000
opls_520-93    N    0.13181021    0.26255013    0.50000000    -0.23480000
opls_750-94    N    0.10375006    0.84968021    0.50000000    -0.34380000
opls_542-95    N    0.98084004    0.89456975    0.50000000    -0.38840000
opls_520-96    N    0.09109981    0.67979998    0.50000000    -0.34930000
opls_520-97    N    0.73744987    0.13181021    0.50000000    -0.23480000
opls_750-98    N    0.15031979    0.10375006    0.50000000    -0.34380000
opls_542-99    N    0.10543025    0.98084004    0.50000000    -0.38840000
opls_520-100    N    0.90890019    0.32020002    0.50000000    -0.34930000
opls_520-101    N    0.26255013    0.86818979    0.50000000    -0.23480000
opls_750-102    N    0.84968021    0.89624994    0.50000000    -0.34380000
opls_542-103    N    0.89456975    0.01915996    0.50000000    -0.38840000
Zn2+-104    Zn    0.00000000    0.00000000    0.50000000    0.80420000
Zn2+-105    Zn    0.50000000    0.50000000    0.50000000    0.80420000
