#======================================================================
# Crystal Data Generated By AuToFF
#----------------------------------------------------------------------

data_AuToFF_phase_1

_cell_length_a                         56.4300
_cell_length_b                         3.5334
_cell_length_c                         37.4960
_cell_angle_alpha                      90.00
_cell_angle_beta                       90.00
_cell_angle_gamma                      90.00
_symmetry_space_group_name_H-M_alt     'P 1'
_symmetry_space_group_IT_number        1

loop_
_space_group_symop_operation_xyz
   'x, y, z'

loop_
   _atom_site_label
   _atom_site_type_symbol
   _atom_site_fract_x
   _atom_site_fract_y
   _atom_site_fract_z
   _atom_site_charge
opls_700-0    C    0.63260004    0.50001132    0.98052006    0.02600000
opls_700-1    C    0.13214000    0.50001132    0.48062993    0.02550000
opls_700-2    C    0.36765993    0.50001132    0.01893989    0.02840000
opls_700-3    C    0.86795995    0.50001132    0.51905003    0.02630000
opls_700-4    C    0.36739004    0.50001132    0.98052006    0.02600000
opls_700-5    C    0.86786000    0.50001132    0.48062993    0.02680000
opls_700-6    C    0.63234007    0.50001132    0.01893989    0.02840000
opls_700-7    C    0.13204005    0.50001132    0.51905003    0.02630000
opls_145-8    C    0.61041007    0.50001132    0.96209996    -0.24510000
opls_145-9    C    0.10986000    0.50001132    0.46237999    -0.24500000
opls_145-10    C    0.39014000    0.50001132    0.03669991    -0.24400000
opls_145-11    C    0.89034007    0.50001132    0.53701995    -0.24490000
opls_145-12    C    0.38958993    0.50001132    0.96209996    -0.24510000
opls_145-13    C    0.89014000    0.50001132    0.46237999    -0.24500000
opls_145-14    C    0.60986000    0.50001132    0.03669991    -0.24400000
opls_145-15    C    0.10965993    0.50001132    0.53701995    -0.24500000
opls_166-16    C    0.58907992    0.50001132    0.98066994    0.15540000
opls_166-17    C    0.08855999    0.50001132    0.48112999    0.15610000
opls_166-18    C    0.41127999    0.50001132    0.01749013    0.15610000
opls_166-19    C    0.91153004    0.50001132    0.51800992    0.15610000
opls_166-20    C    0.41092008    0.50001132    0.98066994    0.15540000
opls_166-21    C    0.91144001    0.50001132    0.48112999    0.15610000
opls_166-22    C    0.58872001    0.50001132    0.01749013    0.15610000
opls_166-23    C    0.08846996    0.50001132    0.51800992    0.15610000
opls_145-24    C    0.47460004    0.50001132    0.99800005    -0.30340000
opls_145-25    C    0.97481995    0.50001132    0.49931993    -0.28460000
opls_145-26    C    0.52539996    0.50001132    0.99800005    -0.30350000
opls_145-27    C    0.02518005    0.50001132    0.49931993    -0.28450000
opls_716-28    C    0.48764009    0.50001132    0.96586996    0.12050000
opls_145-29    C    0.98753004    0.50001132    0.46685006    -0.08120000
opls_145-30    C    0.51251001    0.50001132    0.03038991    -0.07930000
opls_145-31    C    0.01246996    0.50001132    0.53177992    -0.08120000
opls_716-32    C    0.51235991    0.50001132    0.96586996    0.12050000
opls_145-33    C    0.01246996    0.50001132    0.46685006    -0.08120000
opls_145-34    C    0.48748999    0.50001132    0.03038991    -0.07930000
opls_145-35    C    0.98753004    0.50001132    0.53177992    -0.08120000
opls_145-36    C    0.78104005    0.50001132    0.33235012    -0.28420000
opls_145-37    C    0.28041007    0.50001132    0.83262001    -0.28420000
opls_145-38    C    0.21800992    0.50001132    0.66844997    -0.28460000
opls_145-39    C    0.71818005    0.50001132    0.16854998    -0.28420000
opls_145-40    C    0.21895995    0.50001132    0.33235012    -0.28420000
opls_145-41    C    0.71958993    0.50001132    0.83262001    -0.28420000
opls_145-42    C    0.78199008    0.50001132    0.66844997    -0.28460000
opls_145-43    C    0.28181995    0.50001132    0.16854998    -0.28420000
opls_145-44    C    0.75602002    0.50001132    0.33211009    -0.14860000
opls_145-45    C    0.25539004    0.50001132    0.83225011    -0.14940000
opls_145-46    C    0.24302995    0.50001132    0.66885988    -0.14860000
opls_145-47    C    0.74320007    0.50001132    0.16881987    -0.14940000
opls_145-48    C    0.24397998    0.50001132    0.33211009    -0.14860000
opls_145-49    C    0.74460996    0.50001132    0.83225011    -0.14940000
opls_145-50    C    0.75697005    0.50001132    0.66885988    -0.14860000
opls_145-51    C    0.25679993    0.50001132    0.16881987    -0.14940000
opls_700-52    C    0.78107000    0.50001132    0.26683993    0.08300000
opls_700-53    C    0.28062998    0.50001132    0.76713009    0.08400000
opls_700-54    C    0.21778008    0.50001132    0.73395989    0.08300000
opls_700-55    C    0.71811997    0.50001132    0.23405003    0.08300000
opls_700-56    C    0.21893000    0.50001132    0.26683993    0.08300000
opls_700-57    C    0.71937002    0.50001132    0.76713009    0.08400000
opls_700-58    C    0.78221992    0.50001132    0.73395989    0.08300000
opls_700-59    C    0.28188995    0.50001132    0.23405003    0.08300000
opls_145-60    C    0.79339004    0.50001132    0.29959009    -0.14860000
opls_145-61    C    0.29286000    0.50001132    0.79995013    -0.14860000
opls_145-62    C    0.20555006    0.50001132    0.70112012    -0.14860000
opls_145-63    C    0.70579993    0.50001132    0.20129000    -0.14760000
opls_145-64    C    0.20660996    0.50001132    0.29959009    -0.14860000
opls_145-65    C    0.70714000    0.50001132    0.79995013    -0.14860000
opls_145-66    C    0.79444994    0.50001132    0.70112012    -0.14860000
opls_145-67    C    0.29420007    0.50001132    0.20129000    -0.14880000
opls_700-68    C    0.74330994    0.50001132    0.29967997    0.08380000
opls_700-69    C    0.24278008    0.50001132    0.79975011    0.08380000
opls_700-70    C    0.25562998    0.50001132    0.70137001    0.08400000
opls_700-71    C    0.75588995    0.50001132    0.20124013    0.08380000
opls_700-72    C    0.25669006    0.50001132    0.29967997    0.08380000
opls_700-73    C    0.75721992    0.50001132    0.79975011    0.08380000
opls_700-74    C    0.74437002    0.50001132    0.70137001    0.08400000
opls_700-75    C    0.24411005    0.50001132    0.20124013    0.08280000
opls_700-76    C    0.75588995    0.50001132    0.26687007    0.02390000
opls_700-77    C    0.25546004    0.50001132    0.76701008    0.02390000
opls_700-78    C    0.24295003    0.50001132    0.73409990    0.02370000
opls_700-79    C    0.74328992    0.50001132    0.23403990    0.02380000
opls_700-80    C    0.24411005    0.50001132    0.26687007    0.02390000
opls_700-81    C    0.74453996    0.50001132    0.76701008    0.02390000
opls_700-82    C    0.75704997    0.50001132    0.73409990    0.02370000
opls_700-83    C    0.25671008    0.50001132    0.23403990    0.02390000
opls_145-84    C    0.70585008    0.50001132    0.26685006    -0.21550000
opls_145-85    C    0.20541007    0.50001132    0.76667004    -0.21550000
opls_145-86    C    0.29300000    0.50001132    0.73441994    -0.21550000
opls_145-87    C    0.79334999    0.50001132    0.23405990    -0.21550000
opls_145-88    C    0.29414992    0.50001132    0.26685006    -0.21550000
opls_145-89    C    0.79458993    0.50001132    0.76667004    -0.21550000
opls_145-90    C    0.70700000    0.50001132    0.73441994    -0.21550000
opls_145-91    C    0.20665001    0.50001132    0.23405990    -0.21550000
opls_145-92    C    0.78090005    0.50001132    0.20161991    -0.21550000
opls_145-93    C    0.28062998    0.50001132    0.70189994    -0.21550000
opls_145-94    C    0.21778008    0.50001132    0.79919991    -0.21550000
opls_145-95    C    0.71830994    0.50001132    0.29929006    -0.21550000
opls_145-96    C    0.21911005    0.50001132    0.20161991    -0.21550000
opls_145-97    C    0.71937002    0.50001132    0.70189994    -0.21550000
opls_145-98    C    0.78221992    0.50001132    0.79919991    -0.21550000
opls_145-99    C    0.28169006    0.50001132    0.29929006    -0.21550000
opls_700-100    C    0.65464009    0.50001132    0.96171992    0.02610000
opls_700-101    C    0.67664009    0.50001132    0.98118999    0.02550000
opls_145-102    C    0.65557009    0.50001132    0.92358012    -0.24510000
opls_166-103    C    0.67714000    0.50001132    0.90558993    0.15610000
opls_166-104    C    0.69828992    0.50001132    0.92423992    0.15400000
opls_145-105    C    0.69832997    0.50001132    0.96137988    -0.24500000
opls_700-106    C    0.15414000    0.50001132    0.46171005    0.02680000
opls_700-107    C    0.17620007    0.50001132    0.48106998    0.02510000
opls_145-108    C    0.15500000    0.50001132    0.42356011    -0.24510000
opls_166-109    C    0.17653996    0.50001132    0.40546005    0.15640000
opls_166-110    C    0.19771008    0.50001132    0.42403003    0.15610000
opls_145-111    C    0.19785008    0.50001132    0.46116012    -0.24500000
opls_700-112    C    0.34581995    0.50001132    0.03828008    0.02510000
opls_700-113    C    0.32360004    0.50001132    0.01933006    0.02510000
opls_145-114    C    0.34528992    0.50001132    0.07645002    -0.24500000
opls_166-115    C    0.32390998    0.50001132    0.09498000    0.15620000
opls_166-116    C    0.30258001    0.50001132    0.07675992    0.15610000
opls_145-117    C    0.30213007    0.50001132    0.03965010    -0.24510000
opls_700-118    C    0.84607992    0.50001132    0.53826008    0.02550000
opls_700-119    C    0.82390998    0.50001132    0.51919991    0.02610000
opls_145-120    C    0.84544001    0.50001132    0.57643002    -0.24510000
opls_166-121    C    0.82402002    0.50001132    0.59481998    0.15610000
opls_166-122    C    0.80274996    0.50001132    0.57653003    0.15610000
opls_145-123    C    0.80239004    0.50001132    0.53939994    -0.24500000
opls_700-124    C    0.34535991    0.50001132    0.96171992    0.02600000
opls_700-125    C    0.32335991    0.50001132    0.98118999    0.02550000
opls_145-126    C    0.34442991    0.50001132    0.92358012    -0.24500000
opls_166-127    C    0.32286000    0.50001132    0.90558993    0.15610000
opls_166-128    C    0.30171008    0.50001132    0.92423992    0.15400000
opls_145-129    C    0.30167003    0.50001132    0.96137988    -0.24500000
opls_700-130    C    0.84585008    0.50001132    0.46171005    0.02680000
opls_700-131    C    0.82379993    0.50001132    0.48106998    0.02550000
opls_145-132    C    0.84500000    0.50001132    0.42356011    -0.24510000
opls_166-133    C    0.82346004    0.50001132    0.40546005    0.15640000
opls_166-134    C    0.80228992    0.50001132    0.42403003    0.15620000
opls_145-135    C    0.80214992    0.50001132    0.46116012    -0.24500000
opls_700-136    C    0.65418005    0.50001132    0.03828008    0.02510000
opls_700-137    C    0.67639996    0.50001132    0.01933006    0.02510000
opls_145-138    C    0.65471008    0.50001132    0.07645002    -0.24500000
opls_166-139    C    0.67609995    0.50001132    0.09498000    0.15610000
opls_166-140    C    0.69741999    0.50001132    0.07675992    0.15610000
opls_145-141    C    0.69786993    0.50001132    0.03965010    -0.24510000
opls_700-142    C    0.15392008    0.50001132    0.53826008    0.02550000
opls_700-143    C    0.17609002    0.50001132    0.51919991    0.02610000
opls_145-144    C    0.15455999    0.50001132    0.57643002    -0.24510000
opls_166-145    C    0.17597998    0.50001132    0.59481998    0.15610000
opls_166-146    C    0.19725004    0.50001132    0.57653003    0.15610000
opls_145-147    C    0.19760996    0.50001132    0.53939994    -0.24500000
opls_146-148    H    0.60772001    0.50001132    0.06352998    0.21410000
opls_146-149    H    0.10767003    0.50001132    0.56389001    0.21400000
opls_146-150    H    0.39144994    0.50001132    0.93520002    0.21420000
opls_146-151    H    0.89197005    0.50001132    0.43548992    0.21410000
opls_146-152    H    0.39227999    0.50001132    0.06352998    0.21400000
opls_146-153    H    0.89232997    0.50001132    0.56389001    0.21400000
opls_146-154    H    0.60855006    0.50001132    0.93520002    0.21420000
opls_146-155    H    0.10802995    0.50001132    0.43548992    0.21400000
opls_146-156    H    0.64006007    0.50001132    0.09213009    0.21400000
opls_146-157    H    0.14000992    0.50001132    0.59227998    0.21400000
opls_146-158    H    0.35888995    0.50001132    0.90750000    0.21400000
opls_146-159    H    0.85946004    0.50001132    0.40752000    0.21400000
opls_146-160    H    0.35993993    0.50001132    0.09213009    0.21400000
opls_146-161    H    0.85999008    0.50001132    0.59227998    0.21400000
opls_146-162    H    0.64111997    0.50001132    0.90750000    0.21400000
opls_146-163    H    0.14053996    0.50001132    0.40752000    0.21400000
opls_146-164    H    0.71432997    0.50001132    0.02887988    0.21400000
opls_146-165    H    0.21407992    0.50001132    0.52858012    0.21420000
opls_146-166    H    0.28532004    0.50001132    0.97252987    0.21390000
opls_146-167    H    0.78574996    0.50001132    0.47221010    0.21420000
opls_146-168    H    0.28567003    0.50001132    0.02887988    0.21400000
opls_146-169    H    0.78592008    0.50001132    0.52858012    0.21420000
opls_146-170    H    0.71467996    0.50001132    0.97252987    0.21390000
opls_146-171    H    0.21425004    0.50001132    0.47221010    0.21420000
opls_146-172    H    0.97864009    0.50001132    0.44298005    0.21370000
opls_146-173    H    0.52134007    0.50001132    0.05423005    0.21380000
opls_146-174    H    0.02134007    0.50001132    0.55566007    0.21370000
opls_146-175    H    0.02135991    0.50001132    0.44298005    0.21370000
opls_146-176    H    0.47865993    0.50001132    0.05423005    0.21370000
opls_146-177    H    0.97865993    0.50001132    0.55566007    0.21380000
opls_146-178    H    0.74695003    0.50001132    0.35584009    0.21380000
opls_146-179    H    0.24630994    0.50001132    0.85596010    0.21370000
opls_146-180    H    0.25218005    0.50001132    0.64520002    0.21370000
opls_146-181    H    0.75225004    0.50001132    0.14508001    0.21370000
opls_146-182    H    0.25304997    0.50001132    0.35584009    0.21370000
opls_146-183    H    0.75369006    0.50001132    0.85596010    0.21380000
opls_146-184    H    0.74781995    0.50001132    0.64520002    0.21370000
opls_146-185    H    0.24774996    0.50001132    0.14508001    0.21370000
opls_146-186    H    0.81158001    0.50001132    0.29961009    0.21370000
opls_146-187    H    0.31106007    0.50001132    0.80010988    0.21370000
opls_146-188    H    0.18737002    0.50001132    0.70096010    0.21370000
opls_146-189    H    0.68760004    0.50001132    0.20120013    0.21370000
opls_146-190    H    0.18841999    0.50001132    0.29961009    0.21370000
opls_146-191    H    0.68893993    0.50001132    0.80010988    0.21380000
opls_146-192    H    0.81262998    0.50001132    0.70096010    0.21370000
opls_146-193    H    0.31239996    0.50001132    0.20120013    0.21370000
opls_146-194    H    0.68772001    0.50001132    0.26741012    0.21370000
opls_146-195    H    0.18727999    0.50001132    0.76711996    0.21370000
opls_146-196    H    0.31113007    0.50001132    0.73397002    0.21370000
opls_146-197    H    0.81148006    0.50001132    0.23350011    0.21370000
opls_146-198    H    0.31227999    0.50001132    0.26741012    0.21370000
opls_146-199    H    0.81272001    0.50001132    0.76711996    0.21370000
opls_146-200    H    0.68886993    0.50001132    0.73397002    0.21370000
opls_146-201    H    0.18851994    0.50001132    0.23350011    0.21380000
opls_146-202    H    0.79027999    0.50001132    0.17826008    0.21370000
opls_146-203    H    0.29007992    0.50001132    0.67860012    0.21370000
opls_146-204    H    0.20832997    0.50001132    0.82250000    0.21370000
opls_146-205    H    0.70892008    0.50001132    0.32264988    0.21370000
opls_146-206    H    0.20972001    0.50001132    0.17826008    0.21370000
opls_146-207    H    0.70992008    0.50001132    0.67860012    0.21370000
opls_146-208    H    0.79167003    0.50001132    0.82250000    0.21370000
opls_146-209    H    0.29107992    0.50001132    0.32264988    0.21370000
opls_750-210    N    0.47890998    0.50001132    0.93264001    -0.40040000
opls_750-211    N    0.52109002    0.50001132    0.93264001    -0.40040000
opls_202-212    S    0.50000000    0.50001132    0.90082996    0.38170000
opls_167-213    O    0.56704005    0.50001132    0.96727011    -0.38900000
opls_167-214    O    0.06634007    0.50001132    0.46798005    -0.38900000
opls_167-215    O    0.43365001    0.50001132    0.03000987    -0.38920000
opls_167-216    O    0.93379993    0.50001132    0.53092010    -0.38960000
opls_167-217    O    0.43295995    0.50001132    0.96727011    -0.38900000
opls_167-218    O    0.93365993    0.50001132    0.46798005    -0.38910000
opls_167-219    O    0.56634999    0.50001132    0.03000987    -0.38920000
opls_167-220    O    0.06620007    0.50001132    0.53092010    -0.38960000
opls_167-221    O    0.71707000    0.50001132    0.90199008    -0.38900000
opls_167-222    O    0.21637002    0.50001132    0.40165004    -0.38670000
opls_167-223    O    0.28400992    0.50001132    0.09935006    -0.38900000
opls_167-224    O    0.78421992    0.50001132    0.59915004    -0.38940000
opls_167-225    O    0.28293000    0.50001132    0.90199008    -0.38900000
opls_167-226    O    0.78362998    0.50001132    0.40165004    -0.38670000
opls_167-227    O    0.71599008    0.50001132    0.09935006    -0.38910000
opls_167-228    O    0.21578008    0.50001132    0.59915004    -0.38950000
opls_167-229    O    0.68095995    0.50001132    0.87014001    -0.38740000
opls_167-230    O    0.18023994    0.50001132    0.36997013    -0.38950000
opls_167-231    O    0.32039004    0.50001132    0.13052992    -0.38960000
opls_167-232    O    0.82053004    0.50001132    0.63036004    -0.38960000
opls_167-233    O    0.31904005    0.50001132    0.87014001    -0.38740000
opls_167-234    O    0.81976006    0.50001132    0.36997013    -0.38960000
opls_167-235    O    0.67960996    0.50001132    0.13052992    -0.38800000
opls_167-236    O    0.17946996    0.50001132    0.63036004    -0.38960000
MOF2_B_2-237    B    0.55181995    0.50001132    0.99820994    0.49990000
MOF2_B_2-238    B    0.05158001    0.50001132    0.49937007    0.49980000
MOF2_B_2-239    B    0.44818005    0.50001132    0.99820994    0.49980000
MOF2_B_2-240    B    0.94841999    0.50001132    0.49937007    0.49980000
MOF2_B_2-241    B    0.70639996    0.50001132    0.86703995    0.50050000
MOF2_B_2-242    B    0.20569998    0.50001132    0.36671005    0.49980000
MOF2_B_2-243    B    0.29495995    0.50001132    0.13409004    0.50040000
MOF2_B_2-244    B    0.79509002    0.50001132    0.63395002    0.49980000
MOF2_B_2-245    B    0.29360004    0.50001132    0.86703995    0.50050000
MOF2_B_2-246    B    0.79430002    0.50001132    0.36671005    0.49990000
MOF2_B_2-247    B    0.70504005    0.50001132    0.13409004    0.50040000
MOF2_B_2-248    B    0.20490998    0.50001132    0.63395002    0.49980000
