#======================================================================
# Crystal Data Generated By AuToFF
#----------------------------------------------------------------------

data_AuToFF_phase_1

_cell_length_a                         25.3600
_cell_length_b                         29.8000
_cell_length_c                         3.5000
_cell_angle_alpha                      90.00
_cell_angle_beta                       90.00
_cell_angle_gamma                      90.00
_symmetry_space_group_name_H-M_alt     'P 1'
_symmetry_space_group_IT_number        1

loop_
_space_group_symop_operation_xyz
   'x, y, z'

loop_
   _atom_site_label
   _atom_site_type_symbol
   _atom_site_fract_x
   _atom_site_fract_y
   _atom_site_fract_z
   _atom_site_charge
opls_145-0    C    0.44328983    0.91931007    0.00000000    -0.15550000
opls_700-1    C    0.47255994    0.95906007    0.00000000    0.02110000
opls_145-2    C    0.36435016    0.95987987    0.00000000    -0.15530000
opls_700-3    C    0.38933005    0.91853993    0.00000000    0.05860000
opls_700-4    C    0.35972989    0.87483993    0.00000000    0.05570000
opls_145-5    C    0.38519992    0.83316007    0.00000000    -0.23420000
opls_145-6    C    0.35835016    0.79322987    0.00000000    -0.23480000
opls_145-7    C    0.30502011    0.79268993    0.00000000    0.04760000
opls_145-8    C    0.27858991    0.83315000    0.00000000    -0.23430000
opls_145-9    C    0.30539984    0.87353993    0.00000000    -0.23440000
opls_142-10    C    0.72108005    0.25078993    0.00000000    0.08660000
opls_145-11    C    0.94322003    0.41883993    0.00000000    -0.15540000
opls_700-12    C    0.97264984    0.45877013    0.00000000    0.02220000
opls_145-13    C    0.86488013    0.46015000    0.00000000    -0.15500000
opls_700-14    C    0.88924014    0.41858993    0.00000000    0.06100000
opls_700-15    C    0.85827997    0.37562013    0.00000000    0.05350000
opls_145-16    C    0.88163998    0.33301007    0.00000000    -0.23420000
opls_145-17    C    0.85238013    0.29395000    0.00000000    -0.24280000
opls_145-18    C    0.79900000    0.29560000    0.00000000    0.16750000
opls_145-19    C    0.77522989    0.33743993    0.00000000    -0.24280000
opls_145-20    C    0.80408991    0.37633993    0.00000000    -0.23450000
opls_145-21    C    0.55671017    0.08068993    0.00000000    -0.15550000
opls_700-22    C    0.52744006    0.04093993    0.00000000    0.02110000
opls_145-23    C    0.63564984    0.04012013    0.00000000    -0.15530000
opls_700-24    C    0.61066995    0.08146007    0.00000000    0.05860000
opls_700-25    C    0.64027011    0.12516007    0.00000000    0.05570000
opls_145-26    C    0.61480008    0.16683993    0.00000000    -0.23430000
opls_145-27    C    0.64164984    0.20677013    0.00000000    -0.23480000
opls_145-28    C    0.69497989    0.20731007    0.00000000    0.04760000
opls_145-29    C    0.72141009    0.16685000    0.00000000    -0.23430000
opls_145-30    C    0.69460016    0.12646007    0.00000000    -0.23440000
opls_142-31    C    0.27891995    0.74921007    0.00000000    0.08660000
opls_145-32    C    0.05677997    0.58116007    0.00000000    -0.15550000
opls_700-33    C    0.02735016    0.54122987    0.00000000    0.02220000
opls_145-34    C    0.13511987    0.53985000    0.00000000    -0.15500000
opls_700-35    C    0.11075986    0.58141007    0.00000000    0.06100000
opls_700-36    C    0.14172003    0.62437987    0.00000000    0.05350000
opls_145-37    C    0.11836002    0.66698993    0.00000000    -0.23430000
opls_145-38    C    0.14761987    0.70605000    0.00000000    -0.24280000
opls_145-39    C    0.20100000    0.70440000    0.00000000    0.16750000
opls_145-40    C    0.22477011    0.66256007    0.00000000    -0.24280000
opls_145-41    C    0.19591009    0.62366007    0.00000000    -0.23450000
opls_145-42    C    0.55671017    0.91931007    0.00000000    -0.15550000
opls_700-43    C    0.52744006    0.95906007    0.00000000    0.02110000
opls_145-44    C    0.63564984    0.95987987    0.00000000    -0.15530000
opls_700-45    C    0.61066995    0.91853993    0.00000000    0.05860000
opls_700-46    C    0.64027011    0.87483993    0.00000000    0.05570000
opls_145-47    C    0.61480008    0.83316007    0.00000000    -0.23430000
opls_145-48    C    0.64164984    0.79322987    0.00000000    -0.23480000
opls_145-49    C    0.69497989    0.79268993    0.00000000    0.04760000
opls_145-50    C    0.72141009    0.83315000    0.00000000    -0.23430000
opls_145-51    C    0.69460016    0.87353993    0.00000000    -0.23440000
opls_142-52    C    0.27891995    0.25078993    0.00000000    0.08660000
opls_145-53    C    0.05677997    0.41883993    0.00000000    -0.15550000
opls_700-54    C    0.02735016    0.45877013    0.00000000    0.02220000
opls_145-55    C    0.13511987    0.46015000    0.00000000    -0.15500000
opls_700-56    C    0.11075986    0.41858993    0.00000000    0.06100000
opls_700-57    C    0.14172003    0.37562013    0.00000000    0.05350000
opls_145-58    C    0.11836002    0.33301007    0.00000000    -0.23430000
opls_145-59    C    0.14761987    0.29395000    0.00000000    -0.24280000
opls_145-60    C    0.20100000    0.29560000    0.00000000    0.16750000
opls_145-61    C    0.22477011    0.33743993    0.00000000    -0.24270000
opls_145-62    C    0.19591009    0.37633993    0.00000000    -0.23450000
opls_145-63    C    0.44328983    0.08068993    0.00000000    -0.15550000
opls_700-64    C    0.47255994    0.04093993    0.00000000    0.02110000
opls_145-65    C    0.36435016    0.04012013    0.00000000    -0.15530000
opls_700-66    C    0.38933005    0.08146007    0.00000000    0.05860000
opls_700-67    C    0.35972989    0.12516007    0.00000000    0.05580000
opls_145-68    C    0.38519992    0.16683993    0.00000000    -0.23430000
opls_145-69    C    0.35835016    0.20677013    0.00000000    -0.23470000
opls_145-70    C    0.30502011    0.20731007    0.00000000    0.04760000
opls_145-71    C    0.27858991    0.16685000    0.00000000    -0.23430000
opls_145-72    C    0.30539984    0.12646007    0.00000000    -0.23440000
opls_142-73    C    0.72108005    0.74921007    0.00000000    0.08660000
opls_145-74    C    0.94322003    0.58116007    0.00000000    -0.15550000
opls_700-75    C    0.97264984    0.54122987    0.00000000    0.02220000
opls_145-76    C    0.86488013    0.53985000    0.00000000    -0.15500000
opls_700-77    C    0.88924014    0.58141007    0.00000000    0.06100000
opls_700-78    C    0.85827997    0.62437987    0.00000000    0.05350000
opls_145-79    C    0.88163998    0.66698993    0.00000000    -0.23430000
opls_145-80    C    0.85238013    0.70605000    0.00000000    -0.24280000
opls_145-81    C    0.79900000    0.70440000    0.00000000    0.16750000
opls_145-82    C    0.77522989    0.66256007    0.00000000    -0.24280000
opls_145-83    C    0.80408991    0.62366007    0.00000000    -0.23440000
opls_145-84    C    0.94616009    0.50000000    0.00000000    0.01110000
opls_147-85    C    0.89227011    0.50000000    0.00000000    0.03000000
opls_145-86    C    0.05383991    0.50000000    0.00000000    0.01110000
opls_147-87    C    0.10772989    0.50000000    0.00000000    0.03000000
opls_700-88    C    0.44583005    0.00000000    0.00000000    0.01110000
opls_700-89    C    0.39166009    0.00000000    0.00000000    0.02910000
opls_700-90    C    0.55416995    0.00000000    0.00000000    0.01110000
opls_700-91    C    0.60833991    0.00000000    0.00000000    0.02920000
opls_750-92    N    0.77069006    0.25438993    0.00000000    -0.35070000
opls_750-93    N    0.22930994    0.74561007    0.00000000    -0.35070000
opls_750-94    N    0.22930994    0.25438993    0.00000000    -0.35080000
opls_750-95    N    0.77069006    0.74561007    0.00000000    -0.35070000
opls_146-96    H    0.46222003    0.88841007    0.00000000    0.18840000
opls_146-97    H    0.32325986    0.96197013    0.00000000    0.18850000
opls_146-98    H    0.42605008    0.82942987    0.00000000    0.18850000
opls_146-99    H    0.37971017    0.76235000    0.00000000    0.08430000
opls_146-100    H    0.23716995    0.83367013    0.00000000    0.18840000
opls_146-101    H    0.28225986    0.90310000    0.00000000    0.18820000
opls_144-102    H    0.69688013    0.27980000    0.00000000    0.09200000
opls_146-103    H    0.96177997    0.38752013    0.00000000    0.18840000
opls_146-104    H    0.82394992    0.46292013    0.00000000    0.18850000
opls_146-105    H    0.92244006    0.32837013    0.00000000    0.18850000
opls_146-106    H    0.87158991    0.26205000    0.00000000    0.18900000
opls_146-107    H    0.73424014    0.34125000    0.00000000    0.18840000
opls_146-108    H    0.78196017    0.40640000    0.00000000    0.18830000
opls_146-109    H    0.53777997    0.11158993    0.00000000    0.18840000
opls_146-110    H    0.67674014    0.03802987    0.00000000    0.18860000
opls_146-111    H    0.57394992    0.17057013    0.00000000    0.18850000
opls_146-112    H    0.62028983    0.23765000    0.00000000    0.08430000
opls_146-113    H    0.76283005    0.16632987    0.00000000    0.18840000
opls_146-114    H    0.71774014    0.09690000    0.00000000    0.18810000
opls_144-115    H    0.30311987    0.72020000    0.00000000    0.09200000
opls_146-116    H    0.03822003    0.61247987    0.00000000    0.18840000
opls_146-117    H    0.17605008    0.53707987    0.00000000    0.18850000
opls_146-118    H    0.07755994    0.67162987    0.00000000    0.18860000
opls_146-119    H    0.12841009    0.73795000    0.00000000    0.18900000
opls_146-120    H    0.26575986    0.65875000    0.00000000    0.18850000
opls_146-121    H    0.21803983    0.59360000    0.00000000    0.18840000
opls_146-122    H    0.53777997    0.88841007    0.00000000    0.18840000
opls_146-123    H    0.67674014    0.96197013    0.00000000    0.18850000
opls_146-124    H    0.57394992    0.82942987    0.00000000    0.18850000
opls_146-125    H    0.62028983    0.76235000    0.00000000    0.08430000
opls_146-126    H    0.76283005    0.83367013    0.00000000    0.18850000
opls_146-127    H    0.71774014    0.90310000    0.00000000    0.18810000
opls_144-128    H    0.30311987    0.27980000    0.00000000    0.09200000
opls_146-129    H    0.03822003    0.38752013    0.00000000    0.18840000
opls_146-130    H    0.17605008    0.46292013    0.00000000    0.18850000
opls_146-131    H    0.07755994    0.32837013    0.00000000    0.18860000
opls_146-132    H    0.12841009    0.26205000    0.00000000    0.18900000
opls_146-133    H    0.26575986    0.34125000    0.00000000    0.18850000
opls_146-134    H    0.21803983    0.40640000    0.00000000    0.18830000
opls_146-135    H    0.46222003    0.11158993    0.00000000    0.18840000
opls_146-136    H    0.32325986    0.03802987    0.00000000    0.18850000
opls_146-137    H    0.42605008    0.17057013    0.00000000    0.18860000
opls_146-138    H    0.37971017    0.23765000    0.00000000    0.08430000
opls_146-139    H    0.23716995    0.16632987    0.00000000    0.18840000
opls_146-140    H    0.28225986    0.09690000    0.00000000    0.18810000
opls_144-141    H    0.69688013    0.72020000    0.00000000    0.09200000
opls_146-142    H    0.96177997    0.61247987    0.00000000    0.18840000
opls_146-143    H    0.82394992    0.53707987    0.00000000    0.18860000
opls_146-144    H    0.92244006    0.67162987    0.00000000    0.18850000
opls_146-145    H    0.87158991    0.73795000    0.00000000    0.18910000
opls_146-146    H    0.73424014    0.65875000    0.00000000    0.18840000
opls_146-147    H    0.78196017    0.59360000    0.00000000    0.18830000
