#======================================================================
# Crystal Data Generated By AuToFF
#----------------------------------------------------------------------

data_AuToFF_phase_1

_cell_length_a                         25.5353
_cell_length_b                         6.7739
_cell_length_c                         25.4792
_cell_angle_alpha                      90.00
_cell_angle_beta                       90.44
_cell_angle_gamma                      90.00
_symmetry_space_group_name_H-M_alt     'P 1'
_symmetry_space_group_IT_number        1

loop_
_space_group_symop_operation_xyz
   'x, y, z'

loop_
   _atom_site_label
   _atom_site_type_symbol
   _atom_site_fract_x
   _atom_site_fract_y
   _atom_site_fract_z
   _atom_site_charge
opls_700-0    C    0.55633012    0.50000000    0.50338011    -0.01330000
opls_700-1    C    0.44369010    0.50000000    0.49659987    -0.01420000
opls_700-2    C    0.00603009    0.50000000    0.94413006    0.04910000
opls_700-3    C    0.99399020    0.50000000    0.05586013    0.04750000
opls_142-4    C    0.61139989    0.50000000    0.50973018    0.10320000
opls_142-5    C    0.38862001    0.50000000    0.49026001    0.10320000
opls_142-6    C    0.01290003    0.50000000    0.88927000    0.10290000
opls_142-7    C    0.98711986    0.50000000    0.11072019    0.10290000
opls_145-8    C    0.52490004    0.50000000    0.54896999    -0.21370000
opls_145-9    C    0.47512025    0.50000000    0.45101980    -0.21370000
opls_145-10    C    0.05019999    0.50000000    0.97797002    -0.18710000
opls_145-11    C    0.94981004    0.50000000    0.02200996    -0.18710000
opls_166-12    C    0.46995020    0.50000000    0.54598002    0.20440000
opls_166-13    C    0.53007001    0.50000000    0.45399997    0.20440000
opls_145-14    C    0.04426983    0.50000000    0.03287012    -0.18710000
opls_145-15    C    0.95574999    0.50000000    0.96710986    -0.18710000
opls_543-16    C    0.04015007    0.50000000    0.61516002    0.16230000
opls_543-17    C    0.95987014    0.50000000    0.38481996    0.16230000
opls_543-18    C    0.10692025    0.50000000    0.55850000    0.16230000
opls_543-19    C    0.89310004    0.50000000    0.44149018    0.16230000
opls_716-20    C    0.08678004    0.50000000    0.64410015    -0.21760000
opls_716-21    C    0.91323986    0.50000000    0.35589003    -0.21760000
opls_716-22    C    0.12781022    0.50000000    0.60928015    -0.21800000
opls_716-23    C    0.87221007    0.50000000    0.39071004    -0.21800000
opls_507-24    C    0.94263001    0.50000000    0.60617989    0.16600000
opls_507-25    C    0.05738988    0.50000000    0.39380991    0.16600000
opls_507-26    C    0.11405011    0.50000000    0.46072997    0.16600000
opls_507-27    C    0.88597018    0.50000000    0.53925983    0.16600000
opls_716-28    C    0.89221007    0.50000000    0.62694017    -0.21810000
opls_716-29    C    0.10781022    0.50000000    0.37305002    -0.21810000
opls_716-30    C    0.14277987    0.50000000    0.41435000    -0.21810000
opls_716-31    C    0.85724003    0.50000000    0.58564018    -0.21810000
opls_700-32    C    0.98924014    0.50000000    0.63658008    -0.08110000
opls_700-33    C    0.01078015    0.50000000    0.36341011    -0.08090000
opls_700-34    C    0.13636017    0.50000000    0.51172991    -0.08090000
opls_700-35    C    0.86365025    0.50000000    0.48825007    -0.08090000
opls_700-36    C    0.98483023    0.50000000    0.69184009    0.08770000
opls_700-37    C    0.01519006    0.50000000    0.30815010    0.08770000
opls_700-38    C    0.19154013    0.50000000    0.51644997    0.08770000
opls_700-39    C    0.80848016    0.50000000    0.48353982    0.08440000
opls_145-40    C    0.98255997    0.68004990    0.71974013    -0.18710000
opls_145-41    C    0.01745993    0.68004990    0.28025006    -0.18710000
opls_145-42    C    0.01745993    0.31995010    0.28025006    -0.18710000
opls_145-43    C    0.98255997    0.31995010    0.71974013    -0.18710000
opls_145-44    C    0.21939990    0.31992944    0.51891009    -0.18710000
opls_145-45    C    0.78061999    0.31992944    0.48108010    -0.18710000
opls_145-46    C    0.78061999    0.68007056    0.48108010    -0.18710000
opls_145-47    C    0.21939990    0.68007056    0.51891009    -0.18710000
opls_145-48    C    0.97817994    0.67964983    0.77481017    -0.21830000
opls_145-49    C    0.02183988    0.67964983    0.22516981    -0.21830000
opls_145-50    C    0.02183988    0.32035017    0.22516981    -0.21830000
opls_145-51    C    0.97817994    0.32035017    0.77481017    -0.21830000
opls_145-52    C    0.27439021    0.32036050    0.52372004    -0.21830000
opls_145-53    C    0.72563000    0.32036050    0.47625995    -0.21830000
opls_145-54    C    0.72563000    0.67963950    0.47625995    -0.21830000
opls_145-55    C    0.27439021    0.67963950    0.52372004    -0.21830000
opls_145-56    C    0.97619012    0.50000000    0.80251004    0.19610000
opls_145-57    C    0.02381991    0.50000000    0.19746994    0.19610000
opls_145-58    C    0.30201993    0.50000000    0.52595016    0.19580000
opls_145-59    C    0.69799997    0.50000000    0.47404003    0.19580000
opls_141-60    C    0.52112012    0.50000000    0.35854012    0.44790000
opls_274-61    C    0.55095998    0.50000000    0.30823017    -0.34000000
opls_274-62    C    0.51641998    0.50000000    0.25843987    -0.34060000
opls_267-63    C    0.54562986    0.50987024    0.20582994    0.48470000
opls_141-64    C    0.47890010    0.50000000    0.64143987    0.44800000
opls_274-65    C    0.44906023    0.50000000    0.69174982    -0.33990000
opls_274-66    C    0.48359992    0.50000000    0.74154992    -0.34070000
opls_267-67    C    0.45439003    0.50987024    0.79415985    0.48470000
opls_144-68    H    0.62678006    0.50000000    0.54710018    0.10720000
opls_144-69    H    0.37324015    0.50000000    0.45287981    0.10720000
opls_144-70    H    0.05020029    0.50000000    0.87455992    0.10700000
opls_144-71    H    0.94981992    0.50000000    0.12542006    0.10710000
opls_146-72    H    0.54155994    0.50000000    0.58560996    0.22040000
opls_146-73    H    0.45845988    0.50000000    0.41437002    0.22040000
opls_146-74    H    0.08731030    0.50000000    0.96300012    0.22040000
opls_146-75    H    0.91270991    0.50000000    0.03697986    0.22040000
opls_547-76    H    0.09062007    0.50000000    0.68404017    0.22040000
opls_547-77    H    0.90940022    0.50000000    0.31595002    0.22050000
opls_547-78    H    0.16656019    0.50000000    0.61959004    0.22040000
opls_547-79    H    0.83346002    0.50000000    0.38038995    0.22050000
opls_547-80    H    0.88223013    0.50000000    0.66571017    0.22050000
opls_547-81    H    0.11779009    0.50000000    0.33426981    0.22040000
opls_547-82    H    0.18263021    0.50000000    0.41085018    0.22050000
opls_547-83    H    0.81739001    0.50000000    0.58913019    0.22040000
opls_146-84    H    0.98404018    0.81173032    0.70010982    0.22040000
opls_146-85    H    0.01596985    0.81173032    0.29987016    0.22040000
opls_146-86    H    0.01596985    0.18826968    0.29987016    0.22040000
opls_146-87    H    0.98404018    0.18826968    0.70010982    0.22050000
opls_146-88    H    0.19982008    0.18822982    0.51728009    0.22040000
opls_146-89    H    0.80020021    0.18822982    0.48271010    0.22040000
opls_146-90    H    0.80020021    0.81177018    0.48271010    0.22040000
opls_146-91    H    0.19982008    0.81177018    0.51728009    0.22040000
opls_146-92    H    0.97641029    0.80993962    0.79490008    0.22050000
opls_146-93    H    0.02360021    0.80993962    0.20509010    0.22040000
opls_146-94    H    0.02360021    0.19006038    0.20509010    0.22040000
opls_146-95    H    0.97641029    0.19006038    0.79490008    0.22040000
opls_146-96    H    0.29451994    0.19023015    0.52566992    0.22040000
opls_146-97    H    0.70549995    0.19023015    0.47431988    0.22040000
opls_146-98    H    0.70549995    0.80976985    0.47431988    0.22040000
opls_146-99    H    0.29451994    0.80976985    0.52566992    0.22040000
opls_146-100    H    0.07719991    0.50000000    0.05603989    0.22040000
opls_146-101    H    0.92282030    0.50000000    0.94394010    0.22050000
opls_140-102    H    0.58449988    0.39023015    0.30313999    0.08900000
opls_140-103    H    0.56759011    0.65403977    0.31484988    0.09010000
opls_140-104    H    0.48282017    0.60938012    0.26347982    0.08900000
opls_140-105    H    0.49988994    0.34570041    0.25180015    0.08970000
opls_270-106    H    0.61834983    0.52965943    0.16404995    0.24160000
opls_140-107    H    0.41551022    0.39023015    0.69684981    0.08910000
opls_140-108    H    0.43243010    0.65403977    0.68513011    0.09010000
opls_140-109    H    0.51720005    0.60938012    0.73650017    0.08900000
opls_140-110    H    0.50012017    0.34570041    0.74819004    0.08970000
opls_270-111    H    0.38166999    0.52965943    0.83593004    0.24160000
opls_545-112    H    0.02970016    0.50000000    0.53507983    0.26420000
opls_545-113    H    0.97030987    0.50000000    0.46490015    0.26410000
opls_542-114    N    0.93735008    0.50000000    0.55317001    -0.32190000
opls_542-115    N    0.06267020    0.50000000    0.44682018    -0.32200000
opls_750-116    N    0.35463996    0.50000000    0.53072988    -0.33070000
opls_750-117    N    0.64538025    0.50000000    0.46925010    -0.33090000
opls_750-118    N    0.02805021    0.50000000    0.14475011    -0.33090000
opls_750-119    N    0.97197000    0.50000000    0.85522987    -0.33110000
opls_542-120    N    0.05438008    0.50000000    0.56422013    -0.31250000
opls_542-121    N    0.94564014    0.50000000    0.43575985    -0.31250000
opls_473-122    O    0.44508023    0.50000000    0.59256996    -0.34710000
opls_473-123    O    0.55493999    0.50000000    0.40741002    -0.34700000
opls_272-124    O    0.46203022    0.50195013    0.36030003    -0.46900000
opls_268-125    O    0.60464021    0.52412938    0.20530008    -0.51490000
opls_269-126    O    0.51518010    0.51062017    0.15478016    -0.43310000
opls_272-127    O    0.53799007    0.50195013    0.63969015    -0.46890000
opls_268-128    O    0.39538000    0.52412938    0.79467990    -0.51500000
opls_269-129    O    0.48482993    0.51062017    0.84519983    -0.43320000
