#======================================================================
# Crystal Data Generated By AuToFF
#----------------------------------------------------------------------

data_AuToFF_phase_1

_cell_length_a                         39.2782
_cell_length_b                         39.2782
_cell_length_c                         4.1653
_cell_angle_alpha                      90.00
_cell_angle_beta                       90.00
_cell_angle_gamma                      120.00
_symmetry_space_group_name_H-M_alt     'P 1'
_symmetry_space_group_IT_number        1

loop_
_space_group_symop_operation_xyz
   'x, y, z'

loop_
   _atom_site_label
   _atom_site_type_symbol
   _atom_site_fract_x
   _atom_site_fract_y
   _atom_site_fract_z
   _atom_site_charge
opls_700-0    C    0.70554007    0.34020012    0.50000000    0.01890000
opls_700-1    C    0.65980012    0.36534011    0.50000000    0.01890000
opls_700-2    C    0.63465996    0.29446006    0.50000000    0.01890000
opls_700-3    C    0.29445993    0.65979988    0.50000000    0.01890000
opls_700-4    C    0.34019988    0.63465989    0.50000000    0.01890000
opls_700-5    C    0.36534004    0.70553994    0.50000000    0.01890000
opls_700-6    C    0.69882997    0.37287011    0.50000000    0.01660000
opls_700-7    C    0.62713010    0.32596002    0.50000000    0.01660000
opls_700-8    C    0.67403993    0.30116986    0.50000000    0.00170000
opls_700-9    C    0.30117003    0.62712989    0.50000000    0.01660000
opls_700-10    C    0.37286990    0.67403998    0.50000000    -0.00140000
opls_700-11    C    0.32595993    0.69882984    0.50000000    0.01660000
opls_145-12    C    0.73153005    0.41199003    0.50000000    -0.24460000
opls_145-13    C    0.58801014    0.31954009    0.50000000    -0.24460000
opls_145-14    C    0.68047000    0.26846988    0.50000000    -0.24460000
opls_145-15    C    0.26846995    0.58800997    0.50000000    -0.24460000
opls_145-16    C    0.41199002    0.68046991    0.50000000    -0.24460000
opls_145-17    C    0.31954018    0.73153012    0.50000000    -0.24460000
opls_145-18    C    0.74446990    0.34754991    0.50000000    -0.24450000
opls_145-19    C    0.65245001    0.39692003    0.50000000    -0.24450000
opls_145-20    C    0.60308009    0.25553006    0.50000000    -0.24450000
opls_145-21    C    0.25553010    0.65245009    0.50000000    -0.24450000
opls_145-22    C    0.34754999    0.60307997    0.50000000    -0.24450000
opls_145-23    C    0.39691991    0.74446994    0.50000000    -0.24450000
opls_166-24    C    0.76907987    0.41785993    0.50000000    0.15490000
opls_166-25    C    0.58214006    0.35121996    0.50000000    0.15500000
opls_166-26    C    0.64878006    0.23092011    0.50000000    0.15500000
opls_166-27    C    0.23092013    0.58214007    0.50000000    0.15490000
opls_166-28    C    0.41785994    0.64878004    0.50000000    0.15490000
opls_166-29    C    0.35121994    0.76907989    0.50000000    0.15500000
opls_166-30    C    0.77429991    0.38563002    0.50000000    0.15620000
opls_166-31    C    0.61437016    0.38866007    0.50000000    0.15620000
opls_166-32    C    0.61133996    0.22569991    0.50000000    0.15620000
opls_166-33    C    0.22570009    0.61436998    0.50000000    0.15620000
opls_166-34    C    0.38562984    0.61133993    0.50000000    0.15620000
opls_166-35    C    0.38866004    0.77430009    0.50000000    0.15620000
opls_145-36    C    0.12732991    0.54147999    0.50000000    -0.28240000
opls_145-37    C    0.45851996    0.58585010    0.50000000    -0.28240000
opls_145-38    C    0.41416006    0.87266991    0.50000000    -0.28240000
opls_145-39    C    0.87267009    0.45852001    0.50000000    -0.28240000
opls_145-40    C    0.54147995    0.41415990    0.50000000    -0.28240000
opls_145-41    C    0.58585012    0.12733009    0.50000000    -0.28240000
opls_145-42    C    0.10989012    0.56532000    0.50000000    -0.13040000
opls_145-43    C    0.43469011    0.54457001    0.50000000    -0.13040000
opls_145-44    C    0.45542986    0.89011998    0.50000000    -0.13050000
opls_145-45    C    0.89011997    0.43468999    0.50000000    -0.13040000
opls_145-46    C    0.56532008    0.45542999    0.50000000    -0.13050000
opls_145-47    C    0.54457004    0.10989002    0.50000000    -0.13040000
opls_145-48    C    0.10513993    0.50016992    0.50000000    -0.13150000
opls_145-49    C    0.49983008    0.60496997    0.50000000    -0.13150000
opls_145-50    C    0.39503000    0.89486011    0.50000000    -0.13150000
opls_145-51    C    0.89486007    0.49983008    0.50000000    -0.13150000
opls_145-52    C    0.50016992    0.39503003    0.50000000    -0.13150000
opls_145-53    C    0.60497000    0.10513989    0.50000000    -0.13150000
opls_145-54    C    0.06972996    0.54782996    0.50000000    -0.22320000
opls_145-55    C    0.45217009    0.52190004    0.50000000    -0.22330000
opls_145-56    C    0.47809995    0.93027000    0.50000000    -0.22330000
opls_145-57    C    0.93027004    0.45217004    0.50000000    -0.22330000
opls_145-58    C    0.54782991    0.47809996    0.50000000    -0.22320000
opls_145-59    C    0.52190005    0.06973000    0.50000000    -0.22320000
opls_145-60    C    0.06413004    0.48247997    0.50000000    -0.22410000
opls_145-61    C    0.51751996    0.58165000    0.50000000    -0.22410000
opls_145-62    C    0.41835000    0.93587003    0.50000000    -0.22410000
opls_145-63    C    0.93586996    0.51752003    0.50000000    -0.22410000
opls_145-64    C    0.48248004    0.41835000    0.50000000    -0.22410000
opls_145-65    C    0.58165000    0.06412997    0.50000000    -0.22410000
opls_145-66    C    0.04719004    0.50663013    0.50000000    0.13220000
opls_145-67    C    0.49336997    0.54056013    0.50000000    0.13220000
opls_145-68    C    0.45944014    0.95281004    0.50000000    0.13220000
opls_145-69    C    0.95280996    0.49336987    0.50000000    0.13230000
opls_145-70    C    0.50663003    0.45943987    0.50000000    0.13220000
opls_145-71    C    0.54055986    0.04718996    0.50000000    0.13220000
opls_167-72    O    0.81117994    0.39502004    0.50000000    -0.38260000
opls_167-73    O    0.60497998    0.41615985    0.50000000    -0.38260000
opls_167-74    O    0.58384007    0.18882012    0.50000000    -0.38260000
opls_167-75    O    0.18882006    0.60497996    0.50000000    -0.38260000
opls_167-76    O    0.39501987    0.58383986    0.50000000    -0.38260000
opls_167-77    O    0.41615993    0.81117988    0.50000000    -0.38260000
opls_167-78    O    0.64896004    0.19690986    0.50000000    -0.36470000
opls_167-79    O    0.80308994    0.45205010    0.50000000    -0.36460000
opls_167-80    O    0.54795002    0.35104004    0.50000000    -0.36460000
opls_167-81    O    0.35103981    0.80308985    0.50000000    -0.36470000
opls_167-82    O    0.19691006    0.54794990    0.50000000    -0.36470000
opls_167-83    O    0.45204998    0.64895996    0.50000000    -0.36470000
MOF2_B_2-84    B    0.82968006    0.43697010    0.50000000    0.49820000
MOF2_B_2-85    B    0.56302987    0.39270994    0.50000000    0.49830000
MOF2_B_2-86    B    0.60729007    0.17031996    0.50000000    0.49810000
MOF2_B_2-87    B    0.17031994    0.56302990    0.50000000    0.49810000
MOF2_B_2-88    B    0.43697013    0.60729006    0.50000000    0.49810000
MOF2_B_2-89    B    0.39270993    0.82968004    0.50000000    0.49810000
opls_146-90    H    0.73024996    0.43712003    0.50000000    0.21420000
opls_146-91    H    0.56287995    0.29313010    0.50000000    0.21410000
opls_146-92    H    0.70686983    0.26974987    0.50000000    0.21430000
opls_146-93    H    0.26975004    0.56287997    0.50000000    0.21410000
opls_146-94    H    0.43712005    0.70686990    0.50000000    0.21390000
opls_146-95    H    0.29313002    0.73024984    0.50000000    0.21410000
opls_146-96    H    0.57404996    0.24683001    0.50000000    0.21400000
opls_146-97    H    0.75317012    0.32722002    0.50000000    0.21400000
opls_146-98    H    0.67277991    0.42594997    0.50000000    0.21400000
opls_146-99    H    0.42595004    0.75316999    0.50000000    0.21400000
opls_146-100    H    0.24682988    0.67277998    0.50000000    0.21400000
opls_146-101    H    0.32722009    0.57405003    0.50000000    0.21400000
opls_146-102    H    0.12553990    0.59548000    0.50000000    0.21370000
opls_146-103    H    0.40452012    0.53006004    0.50000000    0.21370000
opls_146-104    H    0.46993998    0.87445996    0.50000000    0.21370000
opls_146-105    H    0.87446010    0.40452000    0.50000000    0.21370000
opls_146-106    H    0.59547988    0.46993996    0.50000000    0.21370000
opls_146-107    H    0.53006002    0.12554004    0.50000000    0.21370000
opls_146-108    H    0.11848012    0.48342012    0.50000000    0.21370000
opls_146-109    H    0.51658011    0.63506000    0.50000000    0.21370000
opls_146-110    H    0.36493993    0.88152988    0.50000000    0.21370000
opls_146-111    H    0.88153006    0.51657988    0.50000000    0.21370000
opls_146-112    H    0.48341989    0.36494000    0.50000000    0.21370000
opls_146-113    H    0.63505998    0.11848011    0.50000000    0.21370000
opls_146-114    H    0.05735007    0.56536998    0.50000000    0.21370000
opls_146-115    H    0.43462997    0.49197993    0.50000000    0.21370000
opls_146-116    H    0.50801995    0.94265009    0.50000000    0.21370000
opls_146-117    H    0.94264993    0.43463002    0.50000000    0.21370000
opls_146-118    H    0.56537003    0.50802007    0.50000000    0.21370000
opls_146-119    H    0.49198005    0.05734991    0.50000000    0.21370000
opls_146-120    H    0.04681985    0.45252987    0.50000000    0.21370000
opls_146-121    H    0.54746994    0.59427997    0.50000000    0.21370000
opls_146-122    H    0.40571983    0.95317986    0.50000000    0.21370000
opls_146-123    H    0.95318015    0.54747013    0.50000000    0.21370000
opls_146-124    H    0.45253006    0.40572003    0.50000000    0.21370000
opls_146-125    H    0.59428017    0.04682014    0.50000000    0.21370000
opls_750-126    N    0.00865012    0.48975009    0.50000000    -0.02640000
opls_750-127    N    0.51024992    0.51889997    0.50000000    -0.02640000
opls_750-128    N    0.48109996    0.99134993    0.50000000    -0.02640000
opls_750-129    N    0.99134988    0.51024991    0.50000000    -0.02640000
opls_750-130    N    0.48975008    0.48110003    0.50000000    -0.02640000
opls_750-131    N    0.51890004    0.00865007    0.50000000    -0.02640000
