#======================================================================
# Crystal Data Generated By AuToFF
#----------------------------------------------------------------------

data_AuToFF_phase_1

_cell_length_a                         39.4840
_cell_length_b                         39.4840
_cell_length_c                         16.7730
_cell_angle_alpha                      90.00
_cell_angle_beta                       90.00
_cell_angle_gamma                      90.00
_symmetry_space_group_name_H-M_alt     'P 1'
_symmetry_space_group_IT_number        1

loop_
_space_group_symop_operation_xyz
   'x, y, z'

loop_
   _atom_site_label
   _atom_site_type_symbol
   _atom_site_fract_x
   _atom_site_fract_y
   _atom_site_fract_z
   _atom_site_charge
opls_700-0    C    0.00000000    0.72812988    0.69569010    0.05570000
opls_700-1    C    0.00000000    0.57729992    0.05403029    0.07200000
opls_145-2    C    0.00000000    0.58820003    0.13561021    -0.09310000
opls_145-3    C    0.00000000    0.56512993    0.20134979    -0.08190000
opls_700-4    C    0.00000000    0.52995998    0.18856973    0.01770000
opls_700-5    C    0.00000000    0.51863008    0.10958028    0.03530000
opls_145-6    C    0.00000000    0.54123012    0.04315984    -0.06080000
opls_700-7    C    0.00000000    0.60295993    0.98222977    0.07180000
opls_145-8    C    0.00000000    0.59206007    0.90134979    -0.08180000
opls_145-9    C    0.00000000    0.61506990    0.83600012    -0.11180000
opls_145-10    C    0.00000000    0.65053997    0.84631014    0.21890000
opls_145-11    C    0.00000000    0.66206007    0.92615990    -0.10560000
opls_145-12    C    0.00000000    0.63894995    0.99209026    -0.09310000
opls_142-13    C    0.00000000    0.70642995    0.77218983    0.03730000
opls_145-14    C    0.00000000    0.71462010    0.61765993    -0.08150000
opls_145-15    C    0.00000000    0.73597989    0.54890002    -0.08180000
opls_700-16    C    0.50000000    0.22812988    0.19569010    0.05570000
opls_700-17    C    0.50000000    0.07729992    0.55403029    0.07200000
opls_145-18    C    0.50000000    0.08820003    0.63561021    -0.09310000
opls_145-19    C    0.50000000    0.06512993    0.70134979    -0.08190000
opls_700-20    C    0.50000000    0.02995998    0.68856973    0.01770000
opls_700-21    C    0.50000000    0.01863008    0.60958028    0.03530000
opls_145-22    C    0.50000000    0.04123012    0.54315984    -0.06080000
opls_700-23    C    0.50000000    0.10295993    0.48222977    0.07180000
opls_145-24    C    0.50000000    0.09206007    0.40134979    -0.08180000
opls_145-25    C    0.50000000    0.11506990    0.33600012    -0.11180000
opls_145-26    C    0.50000000    0.15053997    0.34631014    0.21890000
opls_145-27    C    0.50000000    0.16206007    0.42615990    -0.10550000
opls_145-28    C    0.50000000    0.13894995    0.49209026    -0.09310000
opls_142-29    C    0.50000000    0.20642995    0.27218983    0.03730000
opls_145-30    C    0.50000000    0.21462010    0.11765993    -0.08150000
opls_145-31    C    0.50000000    0.23597989    0.04890002    -0.08180000
opls_700-32    C    0.50000000    0.77187012    0.19569010    0.05570000
opls_700-33    C    0.50000000    0.92270008    0.55403029    0.07200000
opls_145-34    C    0.50000000    0.91179997    0.63561021    -0.09300000
opls_145-35    C    0.50000000    0.93487007    0.70134979    -0.08190000
opls_700-36    C    0.50000000    0.97004002    0.68856973    0.01770000
opls_700-37    C    0.50000000    0.98136992    0.60958028    0.03530000
opls_145-38    C    0.50000000    0.95876988    0.54315984    -0.06080000
opls_700-39    C    0.50000000    0.89704007    0.48222977    0.07180000
opls_145-40    C    0.50000000    0.90793993    0.40134979    -0.08180000
opls_145-41    C    0.50000000    0.88493010    0.33600012    -0.11180000
opls_145-42    C    0.50000000    0.84946003    0.34631014    0.21890000
opls_145-43    C    0.50000000    0.83793993    0.42615990    -0.10560000
opls_145-44    C    0.50000000    0.86105005    0.49209026    -0.09310000
opls_142-45    C    0.50000000    0.79357005    0.27218983    0.03730000
opls_145-46    C    0.50000000    0.78537990    0.11765993    -0.08150000
opls_145-47    C    0.50000000    0.76402011    0.04890002    -0.08180000
opls_700-48    C    0.00000000    0.27187012    0.69569010    0.05570000
opls_700-49    C    0.00000000    0.42270008    0.05403029    0.07200000
opls_145-50    C    0.00000000    0.41179997    0.13561021    -0.09310000
opls_145-51    C    0.00000000    0.43487007    0.20134979    -0.08190000
opls_700-52    C    0.00000000    0.47004002    0.18856973    0.01770000
opls_700-53    C    0.00000000    0.48136992    0.10958028    0.03530000
opls_145-54    C    0.00000000    0.45876988    0.04315984    -0.06080000
opls_700-55    C    0.00000000    0.39704007    0.98222977    0.07180000
opls_145-56    C    0.00000000    0.40793993    0.90134979    -0.08180000
opls_145-57    C    0.00000000    0.38493010    0.83600012    -0.11180000
opls_145-58    C    0.00000000    0.34946003    0.84631014    0.21890000
opls_145-59    C    0.00000000    0.33793993    0.92615990    -0.10560000
opls_145-60    C    0.00000000    0.36105005    0.99209026    -0.09310000
opls_142-61    C    0.00000000    0.29357005    0.77218983    0.03730000
opls_145-62    C    0.00000000    0.28537990    0.61765993    -0.08150000
opls_145-63    C    0.00000000    0.26402011    0.54890002    -0.08180000
opls_700-64    C    0.27187012    0.50000000    0.94569010    0.05570000
opls_700-65    C    0.42270008    0.50000000    0.30403029    0.07200000
opls_145-66    C    0.41179997    0.50000000    0.38561021    -0.09310000
opls_145-67    C    0.43487007    0.50000000    0.45134979    -0.08190000
opls_700-68    C    0.47004002    0.50000000    0.43856973    0.01770000
opls_700-69    C    0.48136992    0.50000000    0.35958028    0.03530000
opls_145-70    C    0.45876988    0.50000000    0.29315984    -0.06080000
opls_700-71    C    0.39704007    0.50000000    0.23222977    0.07180000
opls_145-72    C    0.40793993    0.50000000    0.15134979    -0.08180000
opls_145-73    C    0.38493010    0.50000000    0.08600012    -0.11180000
opls_145-74    C    0.34946003    0.50000000    0.09631014    0.21890000
opls_145-75    C    0.33793993    0.50000000    0.17615990    -0.10560000
opls_145-76    C    0.36105005    0.50000000    0.24209026    -0.09310000
opls_142-77    C    0.29357005    0.50000000    0.02218983    0.03730000
opls_145-78    C    0.28537990    0.50000000    0.86765993    -0.08150000
opls_145-79    C    0.26402011    0.50000000    0.79890002    -0.08180000
opls_700-80    C    0.22812988    0.00000000    0.44569010    0.05570000
opls_700-81    C    0.07729992    0.00000000    0.80403029    0.07200000
opls_145-82    C    0.08820003    0.00000000    0.88561021    -0.09310000
opls_145-83    C    0.06512993    0.00000000    0.95134979    -0.08190000
opls_700-84    C    0.02995998    0.00000000    0.93856973    0.01770000
opls_700-85    C    0.01863008    0.00000000    0.85958028    0.03530000
opls_145-86    C    0.04123012    0.00000000    0.79315984    -0.06080000
opls_700-87    C    0.10295993    0.00000000    0.73222977    0.07180000
opls_145-88    C    0.09206007    0.00000000    0.65134979    -0.08180000
opls_145-89    C    0.11506990    0.00000000    0.58600012    -0.11180000
opls_145-90    C    0.15053997    0.00000000    0.59631014    0.21890000
opls_145-91    C    0.16206007    0.00000000    0.67615990    -0.10560000
opls_145-92    C    0.13894995    0.00000000    0.74209026    -0.09310000
opls_142-93    C    0.20642995    0.00000000    0.52218983    0.03730000
opls_145-94    C    0.21462010    0.00000000    0.36765993    -0.08150000
opls_145-95    C    0.23597989    0.00000000    0.29890002    -0.08180000
opls_700-96    C    0.50000000    0.72812988    0.05430990    0.05570000
opls_700-97    C    0.50000000    0.57729992    0.69596971    0.07200000
opls_145-98    C    0.50000000    0.58820003    0.61438979    -0.09310000
opls_145-99    C    0.50000000    0.56512993    0.54865021    -0.08190000
opls_700-100    C    0.50000000    0.52995998    0.56143027    0.01770000
opls_700-101    C    0.50000000    0.51863008    0.64041972    0.03530000
opls_145-102    C    0.50000000    0.54123012    0.70684016    -0.06080000
opls_700-103    C    0.50000000    0.60295993    0.76777023    0.07180000
opls_145-104    C    0.50000000    0.59206007    0.84865021    -0.08180000
opls_145-105    C    0.50000000    0.61506990    0.91399988    -0.11180000
opls_145-106    C    0.50000000    0.65053997    0.90368986    0.21890000
opls_145-107    C    0.50000000    0.66206007    0.82384010    -0.10560000
opls_145-108    C    0.50000000    0.63894995    0.75790974    -0.09310000
opls_142-109    C    0.50000000    0.70642995    0.97781017    0.03730000
opls_145-110    C    0.50000000    0.71462010    0.13234007    -0.08150000
opls_145-111    C    0.50000000    0.73597989    0.20109998    -0.08180000
opls_700-112    C    0.00000000    0.22812988    0.55430990    0.05570000
opls_700-113    C    0.00000000    0.07729992    0.19596971    0.07200000
opls_145-114    C    0.00000000    0.08820003    0.11438979    -0.09310000
opls_145-115    C    0.00000000    0.06512993    0.04865021    -0.08190000
opls_700-116    C    0.00000000    0.02995998    0.06143027    0.01770000
opls_700-117    C    0.00000000    0.01863008    0.14041972    0.03530000
opls_145-118    C    0.00000000    0.04123012    0.20684016    -0.06080000
opls_700-119    C    0.00000000    0.10295993    0.26777023    0.07180000
opls_145-120    C    0.00000000    0.09206007    0.34865021    -0.08180000
opls_145-121    C    0.00000000    0.11506990    0.41399988    -0.11180000
opls_145-122    C    0.00000000    0.15053997    0.40368986    0.21890000
opls_145-123    C    0.00000000    0.16206007    0.32384010    -0.10560000
opls_145-124    C    0.00000000    0.13894995    0.25790974    -0.09310000
opls_142-125    C    0.00000000    0.20642995    0.47781017    0.03730000
opls_145-126    C    0.00000000    0.21462010    0.63234007    -0.08150000
opls_145-127    C    0.00000000    0.23597989    0.70109998    -0.08180000
opls_700-128    C    0.00000000    0.77187012    0.55430990    0.05570000
opls_700-129    C    0.00000000    0.92270008    0.19596971    0.07200000
opls_145-130    C    0.00000000    0.91179997    0.11438979    -0.09310000
opls_145-131    C    0.00000000    0.93487007    0.04865021    -0.08190000
opls_700-132    C    0.00000000    0.97004002    0.06143027    0.01770000
opls_700-133    C    0.00000000    0.98136992    0.14041972    0.03530000
opls_145-134    C    0.00000000    0.95876988    0.20684016    -0.06080000
opls_700-135    C    0.00000000    0.89704007    0.26777023    0.07180000
opls_145-136    C    0.00000000    0.90793993    0.34865021    -0.08180000
opls_145-137    C    0.00000000    0.88493010    0.41399988    -0.11180000
opls_145-138    C    0.00000000    0.84946003    0.40368986    0.21890000
opls_145-139    C    0.00000000    0.83793993    0.32384010    -0.10560000
opls_145-140    C    0.00000000    0.86105005    0.25790974    -0.09310000
opls_142-141    C    0.00000000    0.79357005    0.47781017    0.03730000
opls_145-142    C    0.00000000    0.78537990    0.63234007    -0.08150000
opls_145-143    C    0.00000000    0.76402011    0.70109998    -0.08180000
opls_700-144    C    0.50000000    0.27187012    0.05430990    0.05570000
opls_700-145    C    0.50000000    0.42270008    0.69596971    0.07200000
opls_145-146    C    0.50000000    0.41179997    0.61438979    -0.09310000
opls_145-147    C    0.50000000    0.43487007    0.54865021    -0.08190000
opls_700-148    C    0.50000000    0.47004002    0.56143027    0.01770000
opls_700-149    C    0.50000000    0.48136992    0.64041972    0.03540000
opls_145-150    C    0.50000000    0.45876988    0.70684016    -0.06080000
opls_700-151    C    0.50000000    0.39704007    0.76777023    0.07180000
opls_145-152    C    0.50000000    0.40793993    0.84865021    -0.08180000
opls_145-153    C    0.50000000    0.38493010    0.91399988    -0.11180000
opls_145-154    C    0.50000000    0.34946003    0.90368986    0.21890000
opls_145-155    C    0.50000000    0.33793993    0.82384010    -0.10560000
opls_145-156    C    0.50000000    0.36105005    0.75790974    -0.09310000
opls_142-157    C    0.50000000    0.29357005    0.97781017    0.03730000
opls_145-158    C    0.50000000    0.28537990    0.13234007    -0.08150000
opls_145-159    C    0.50000000    0.26402011    0.20109998    -0.08180000
opls_700-160    C    0.22812988    0.50000000    0.80430990    0.05570000
opls_700-161    C    0.07729992    0.50000000    0.44596971    0.07200000
opls_145-162    C    0.08820003    0.50000000    0.36438979    -0.09310000
opls_145-163    C    0.06512993    0.50000000    0.29865021    -0.08190000
opls_700-164    C    0.02995998    0.50000000    0.31143027    0.01780000
opls_700-165    C    0.01863008    0.50000000    0.39041972    0.03530000
opls_145-166    C    0.04123012    0.50000000    0.45684016    -0.06080000
opls_700-167    C    0.10295993    0.50000000    0.51777023    0.07180000
opls_145-168    C    0.09206007    0.50000000    0.59865021    -0.08180000
opls_145-169    C    0.11506990    0.50000000    0.66399988    -0.11180000
opls_145-170    C    0.15053997    0.50000000    0.65368986    0.21900000
opls_145-171    C    0.16206007    0.50000000    0.57384010    -0.10560000
opls_145-172    C    0.13894995    0.50000000    0.50790974    -0.09310000
opls_142-173    C    0.20642995    0.50000000    0.72781017    0.03730000
opls_145-174    C    0.21462010    0.50000000    0.88234007    -0.08150000
opls_145-175    C    0.23597989    0.50000000    0.95109998    -0.08180000
opls_700-176    C    0.27187012    0.00000000    0.30430990    0.05570000
opls_700-177    C    0.42270008    0.00000000    0.94596971    0.07200000
opls_145-178    C    0.41179997    0.00000000    0.86438979    -0.09310000
opls_145-179    C    0.43487007    0.00000000    0.79865021    -0.08190000
opls_700-180    C    0.47004002    0.00000000    0.81143027    0.01770000
opls_700-181    C    0.48136992    0.00000000    0.89041972    0.03530000
opls_145-182    C    0.45876988    0.00000000    0.95684016    -0.06080000
opls_700-183    C    0.39704007    0.00000000    0.01777023    0.07180000
opls_145-184    C    0.40793993    0.00000000    0.09865021    -0.08180000
opls_145-185    C    0.38493010    0.00000000    0.16399988    -0.11180000
opls_145-186    C    0.34946003    0.00000000    0.15368986    0.21890000
opls_145-187    C    0.33793993    0.00000000    0.07384010    -0.10560000
opls_145-188    C    0.36105005    0.00000000    0.00790974    -0.09310000
opls_142-189    C    0.29357005    0.00000000    0.22781017    0.03730000
opls_145-190    C    0.28537990    0.00000000    0.38234007    -0.08150000
opls_145-191    C    0.26402011    0.00000000    0.45109998    -0.08180000
opls_700-192    C    0.77187012    0.50000000    0.80430990    0.05570000
opls_700-193    C    0.92270008    0.50000000    0.44596971    0.07200000
opls_145-194    C    0.91179997    0.50000000    0.36438979    -0.09310000
opls_145-195    C    0.93487007    0.50000000    0.29865021    -0.08190000
opls_700-196    C    0.97004002    0.50000000    0.31143027    0.01770000
opls_700-197    C    0.98136992    0.50000000    0.39041972    0.03530000
opls_145-198    C    0.95876988    0.50000000    0.45684016    -0.06080000
opls_700-199    C    0.89704007    0.50000000    0.51777023    0.07180000
opls_145-200    C    0.90793993    0.50000000    0.59865021    -0.08180000
opls_145-201    C    0.88493010    0.50000000    0.66399988    -0.11180000
opls_145-202    C    0.84946003    0.50000000    0.65368986    0.21890000
opls_145-203    C    0.83793993    0.50000000    0.57384010    -0.10560000
opls_145-204    C    0.86105005    0.50000000    0.50790974    -0.09300000
opls_142-205    C    0.79357005    0.50000000    0.72781017    0.03730000
opls_145-206    C    0.78537990    0.50000000    0.88234007    -0.08150000
opls_145-207    C    0.76402011    0.50000000    0.95109998    -0.08180000
opls_700-208    C    0.72812988    0.00000000    0.30430990    0.05570000
opls_700-209    C    0.57729992    0.00000000    0.94596971    0.07200000
opls_145-210    C    0.58820003    0.00000000    0.86438979    -0.09310000
opls_145-211    C    0.56512993    0.00000000    0.79865021    -0.08180000
opls_700-212    C    0.52995998    0.00000000    0.81143027    0.01770000
opls_700-213    C    0.51863008    0.00000000    0.89041972    0.03540000
opls_145-214    C    0.54123012    0.00000000    0.95684016    -0.06080000
opls_700-215    C    0.60295993    0.00000000    0.01777023    0.07180000
opls_145-216    C    0.59206007    0.00000000    0.09865021    -0.08180000
opls_145-217    C    0.61506990    0.00000000    0.16399988    -0.11180000
opls_145-218    C    0.65053997    0.00000000    0.15368986    0.21890000
opls_145-219    C    0.66206007    0.00000000    0.07384010    -0.10550000
opls_145-220    C    0.63894995    0.00000000    0.00790974    -0.09310000
opls_142-221    C    0.70642995    0.00000000    0.22781017    0.03730000
opls_145-222    C    0.71462010    0.00000000    0.38234007    -0.08150000
opls_145-223    C    0.73597989    0.00000000    0.45109998    -0.08180000
opls_700-224    C    0.77187012    0.00000000    0.44569010    0.05570000
opls_700-225    C    0.92270008    0.00000000    0.80403029    0.07200000
opls_145-226    C    0.91179997    0.00000000    0.88561021    -0.09310000
opls_145-227    C    0.93487007    0.00000000    0.95134979    -0.08190000
opls_700-228    C    0.97004002    0.00000000    0.93856973    0.01770000
opls_700-229    C    0.98136992    0.00000000    0.85958028    0.03530000
opls_145-230    C    0.95876988    0.00000000    0.79315984    -0.06080000
opls_700-231    C    0.89704007    0.00000000    0.73222977    0.07180000
opls_145-232    C    0.90793993    0.00000000    0.65134979    -0.08180000
opls_145-233    C    0.88493010    0.00000000    0.58600012    -0.11180000
opls_145-234    C    0.84946003    0.00000000    0.59631014    0.21900000
opls_145-235    C    0.83793993    0.00000000    0.67615990    -0.10560000
opls_145-236    C    0.86105005    0.00000000    0.74209026    -0.09310000
opls_142-237    C    0.79357005    0.00000000    0.52218983    0.03730000
opls_145-238    C    0.78537990    0.00000000    0.36765993    -0.08150000
opls_145-239    C    0.76402011    0.00000000    0.29890002    -0.08180000
opls_700-240    C    0.72812988    0.50000000    0.94569010    0.05570000
opls_700-241    C    0.57729992    0.50000000    0.30403029    0.07200000
opls_145-242    C    0.58820003    0.50000000    0.38561021    -0.09310000
opls_145-243    C    0.56512993    0.50000000    0.45134979    -0.08190000
opls_700-244    C    0.52995998    0.50000000    0.43856973    0.01770000
opls_700-245    C    0.51863008    0.50000000    0.35958028    0.03530000
opls_145-246    C    0.54123012    0.50000000    0.29315984    -0.06080000
opls_700-247    C    0.60295993    0.50000000    0.23222977    0.07180000
opls_145-248    C    0.59206007    0.50000000    0.15134979    -0.08180000
opls_145-249    C    0.61506990    0.50000000    0.08600012    -0.11180000
opls_145-250    C    0.65053997    0.50000000    0.09631014    0.21900000
opls_145-251    C    0.66206007    0.50000000    0.17615990    -0.10560000
opls_145-252    C    0.63894995    0.50000000    0.24209026    -0.09310000
opls_142-253    C    0.70642995    0.50000000    0.02218983    0.03730000
opls_145-254    C    0.71462010    0.50000000    0.86765993    -0.08150000
opls_145-255    C    0.73597989    0.50000000    0.79890002    -0.08180000
opls_701-256    C    0.00000000    0.50000000    0.25000000    0.03720000
opls_701-257    C    0.50000000    0.00000000    0.75000000    0.03720000
opls_701-258    C    0.50000000    0.50000000    0.50000000    0.03720000
opls_701-259    C    0.00000000    0.00000000    0.00000000    0.03720000
opls_146-260    H    0.00000000    0.61638005    0.15037024    0.04840000
opls_146-261    H    0.00000000    0.53074005    0.97984022    0.04840000
opls_146-262    H    0.00000000    0.56386004    0.88676027    0.04840000
opls_146-263    H    0.00000000    0.60502989    0.77226972    0.04840000
opls_146-264    H    0.00000000    0.69037990    0.93940977    0.04840000
opls_146-265    H    0.00000000    0.65039991    0.05447982    0.04840000
opls_146-266    H    0.00000000    0.72431998    0.48671973    0.04840000
opls_146-267    H    0.00000000    0.68601991    0.60840994    0.04840000
opls_146-268    H    0.50000000    0.11638005    0.65037024    0.04840000
opls_146-269    H    0.50000000    0.03074005    0.47984022    0.04840000
opls_146-270    H    0.50000000    0.06386004    0.38676027    0.04840000
opls_146-271    H    0.50000000    0.10502989    0.27226972    0.04840000
opls_146-272    H    0.50000000    0.19037990    0.43940977    0.04840000
opls_146-273    H    0.50000000    0.15039991    0.55447982    0.04840000
opls_146-274    H    0.50000000    0.22431998    0.98671973    0.04840000
opls_146-275    H    0.50000000    0.18601991    0.10840994    0.04840000
opls_146-276    H    0.50000000    0.88361995    0.65037024    0.04840000
opls_146-277    H    0.50000000    0.96925995    0.47984022    0.04840000
opls_146-278    H    0.50000000    0.93613996    0.38676027    0.04840000
opls_146-279    H    0.50000000    0.89497011    0.27226972    0.04840000
opls_146-280    H    0.50000000    0.80962010    0.43940977    0.04840000
opls_146-281    H    0.50000000    0.84960009    0.55447982    0.04840000
opls_146-282    H    0.50000000    0.77568002    0.98671973    0.04840000
opls_146-283    H    0.50000000    0.81398009    0.10840994    0.04840000
opls_146-284    H    0.00000000    0.38361995    0.15037024    0.04840000
opls_146-285    H    0.00000000    0.46925995    0.97984022    0.04840000
opls_146-286    H    0.00000000    0.43613996    0.88676027    0.04840000
opls_146-287    H    0.00000000    0.39497011    0.77226972    0.04840000
opls_146-288    H    0.00000000    0.30962010    0.93940977    0.04840000
opls_146-289    H    0.00000000    0.34960009    0.05447982    0.04840000
opls_146-290    H    0.00000000    0.27568002    0.48671973    0.04840000
opls_146-291    H    0.00000000    0.31398009    0.60840994    0.04850000
opls_146-292    H    0.38361995    0.50000000    0.40037024    0.04840000
opls_146-293    H    0.46925995    0.50000000    0.22984022    0.04840000
opls_146-294    H    0.43613996    0.50000000    0.13676027    0.04840000
opls_146-295    H    0.39497011    0.50000000    0.02226972    0.04840000
opls_146-296    H    0.30962010    0.50000000    0.18940977    0.04840000
opls_146-297    H    0.34960009    0.50000000    0.30447982    0.04840000
opls_146-298    H    0.27568002    0.50000000    0.73671973    0.04840000
opls_146-299    H    0.31398009    0.50000000    0.85840994    0.04840000
opls_146-300    H    0.11638005    0.00000000    0.90037024    0.04840000
opls_146-301    H    0.03074005    0.00000000    0.72984022    0.04840000
opls_146-302    H    0.06386004    0.00000000    0.63676027    0.04840000
opls_146-303    H    0.10502989    0.00000000    0.52226972    0.04840000
opls_146-304    H    0.19037990    0.00000000    0.68940977    0.04840000
opls_146-305    H    0.15039991    0.00000000    0.80447982    0.04840000
opls_146-306    H    0.22431998    0.00000000    0.23671973    0.04840000
opls_146-307    H    0.18601991    0.00000000    0.35840994    0.04840000
opls_146-308    H    0.50000000    0.61638005    0.59962976    0.04840000
opls_146-309    H    0.50000000    0.53074005    0.77015978    0.04840000
opls_146-310    H    0.50000000    0.56386004    0.86323973    0.04840000
opls_146-311    H    0.50000000    0.60502989    0.97773028    0.04840000
opls_146-312    H    0.50000000    0.69037990    0.81059023    0.04840000
opls_146-313    H    0.50000000    0.65039991    0.69552018    0.04840000
opls_146-314    H    0.50000000    0.72431998    0.26328027    0.04840000
opls_146-315    H    0.50000000    0.68601991    0.14159006    0.04840000
opls_146-316    H    0.00000000    0.11638005    0.09962976    0.04840000
opls_146-317    H    0.00000000    0.03074005    0.27015978    0.04840000
opls_146-318    H    0.00000000    0.06386004    0.36323973    0.04840000
opls_146-319    H    0.00000000    0.10502989    0.47773028    0.04840000
opls_146-320    H    0.00000000    0.19037990    0.31059023    0.04840000
opls_146-321    H    0.00000000    0.15039991    0.19552018    0.04840000
opls_146-322    H    0.00000000    0.22431998    0.76328027    0.04840000
opls_146-323    H    0.00000000    0.18601991    0.64159006    0.04840000
opls_146-324    H    0.00000000    0.88361995    0.09962976    0.04840000
opls_146-325    H    0.00000000    0.96925995    0.27015978    0.04840000
opls_146-326    H    0.00000000    0.93613996    0.36323973    0.04840000
opls_146-327    H    0.00000000    0.89497011    0.47773028    0.04840000
opls_146-328    H    0.00000000    0.80962010    0.31059023    0.04840000
opls_146-329    H    0.00000000    0.84960009    0.19552018    0.04840000
opls_146-330    H    0.00000000    0.77568002    0.76328027    0.04840000
opls_146-331    H    0.00000000    0.81398009    0.64159006    0.04840000
opls_146-332    H    0.50000000    0.38361995    0.59962976    0.04840000
opls_146-333    H    0.50000000    0.46925995    0.77015978    0.04840000
opls_146-334    H    0.50000000    0.43613996    0.86323973    0.04840000
opls_146-335    H    0.50000000    0.39497011    0.97773028    0.04840000
opls_146-336    H    0.50000000    0.30962010    0.81059023    0.04840000
opls_146-337    H    0.50000000    0.34960009    0.69552018    0.04840000
opls_146-338    H    0.50000000    0.27568002    0.26328027    0.04840000
opls_146-339    H    0.50000000    0.31398009    0.14159006    0.04840000
opls_146-340    H    0.11638005    0.50000000    0.34962976    0.04840000
opls_146-341    H    0.03074005    0.50000000    0.52015978    0.04850000
opls_146-342    H    0.06386004    0.50000000    0.61323973    0.04840000
opls_146-343    H    0.10502989    0.50000000    0.72773028    0.04840000
opls_146-344    H    0.19037990    0.50000000    0.56059023    0.04840000
opls_146-345    H    0.15039991    0.50000000    0.44552018    0.04840000
opls_146-346    H    0.22431998    0.50000000    0.01328027    0.04840000
opls_146-347    H    0.18601991    0.50000000    0.89159006    0.04840000
opls_146-348    H    0.38361995    0.00000000    0.84962976    0.04840000
opls_146-349    H    0.46925995    0.00000000    0.02015978    0.04840000
opls_146-350    H    0.43613996    0.00000000    0.11323973    0.04840000
opls_146-351    H    0.39497011    0.00000000    0.22773028    0.04840000
opls_146-352    H    0.30962010    0.00000000    0.06059023    0.04840000
opls_146-353    H    0.34960009    0.00000000    0.94552018    0.04840000
opls_146-354    H    0.27568002    0.00000000    0.51328027    0.04840000
opls_146-355    H    0.31398009    0.00000000    0.39159006    0.04840000
opls_146-356    H    0.88361995    0.50000000    0.34962976    0.04840000
opls_146-357    H    0.96925995    0.50000000    0.52015978    0.04840000
opls_146-358    H    0.93613996    0.50000000    0.61323973    0.04840000
opls_146-359    H    0.89497011    0.50000000    0.72773028    0.04840000
opls_146-360    H    0.80962010    0.50000000    0.56059023    0.04840000
opls_146-361    H    0.84960009    0.50000000    0.44552018    0.04840000
opls_146-362    H    0.77568002    0.50000000    0.01328027    0.04840000
opls_146-363    H    0.81398009    0.50000000    0.89159006    0.04840000
opls_146-364    H    0.61638005    0.00000000    0.84962976    0.04840000
opls_146-365    H    0.53074005    0.00000000    0.02015978    0.04840000
opls_146-366    H    0.56386004    0.00000000    0.11323973    0.04840000
opls_146-367    H    0.60502989    0.00000000    0.22773028    0.04840000
opls_146-368    H    0.69037990    0.00000000    0.06059023    0.04840000
opls_146-369    H    0.65039991    0.00000000    0.94552018    0.04840000
opls_146-370    H    0.72431998    0.00000000    0.51328027    0.04840000
opls_146-371    H    0.68601991    0.00000000    0.39159006    0.04840000
opls_146-372    H    0.88361995    0.00000000    0.90037024    0.04840000
opls_146-373    H    0.96925995    0.00000000    0.72984022    0.04840000
opls_146-374    H    0.93613996    0.00000000    0.63676027    0.04840000
opls_146-375    H    0.89497011    0.00000000    0.52226972    0.04840000
opls_146-376    H    0.80962010    0.00000000    0.68940977    0.04840000
opls_146-377    H    0.84960009    0.00000000    0.80447982    0.04840000
opls_146-378    H    0.77568002    0.00000000    0.23671973    0.04840000
opls_146-379    H    0.81398009    0.00000000    0.35840994    0.04840000
opls_146-380    H    0.61638005    0.50000000    0.40037024    0.04840000
opls_146-381    H    0.53074005    0.50000000    0.22984022    0.04840000
opls_146-382    H    0.56386004    0.50000000    0.13676027    0.04840000
opls_146-383    H    0.60502989    0.50000000    0.02226972    0.04840000
opls_146-384    H    0.69037990    0.50000000    0.18940977    0.04840000
opls_146-385    H    0.65039991    0.50000000    0.30447982    0.04840000
opls_146-386    H    0.72431998    0.50000000    0.73671973    0.04840000
opls_146-387    H    0.68601991    0.50000000    0.85840994    0.04840000
opls_146-388    H    0.00000000    0.57520996    0.26504024    0.04840000
opls_144-389    H    0.00000000    0.71921006    0.83314017    0.02850000
opls_146-390    H    0.50000000    0.07520996    0.76504024    0.04840000
opls_144-391    H    0.50000000    0.21921006    0.33314017    0.02850000
opls_146-392    H    0.50000000    0.92479004    0.76504024    0.04840000
opls_144-393    H    0.50000000    0.78078994    0.33314017    0.02850000
opls_146-394    H    0.00000000    0.42479004    0.26504024    0.04840000
opls_144-395    H    0.00000000    0.28078994    0.83314017    0.02850000
opls_146-396    H    0.42479004    0.50000000    0.51504024    0.04840000
opls_144-397    H    0.28078994    0.50000000    0.08314017    0.02850000
opls_146-398    H    0.07520996    0.00000000    0.01504024    0.04840000
opls_144-399    H    0.21921006    0.00000000    0.58314017    0.02850000
opls_146-400    H    0.50000000    0.57520996    0.48495976    0.04840000
opls_144-401    H    0.50000000    0.71921006    0.91685983    0.02850000
opls_146-402    H    0.00000000    0.07520996    0.98495976    0.04840000
opls_144-403    H    0.00000000    0.21921006    0.41685983    0.02850000
opls_146-404    H    0.00000000    0.92479004    0.98495976    0.04840000
opls_144-405    H    0.00000000    0.78078994    0.41685983    0.02850000
opls_146-406    H    0.50000000    0.42479004    0.48495976    0.04840000
opls_144-407    H    0.50000000    0.28078994    0.91685983    0.02850000
opls_146-408    H    0.07520996    0.50000000    0.23495976    0.04840000
opls_144-409    H    0.21921006    0.50000000    0.66685983    0.02850000
opls_146-410    H    0.42479004    0.00000000    0.73495976    0.04850000
opls_144-411    H    0.28078994    0.00000000    0.16685983    0.02850000
opls_146-412    H    0.92479004    0.50000000    0.23495976    0.04840000
opls_144-413    H    0.78078994    0.50000000    0.66685983    0.02850000
opls_146-414    H    0.57520996    0.00000000    0.73495976    0.04840000
opls_144-415    H    0.71921006    0.00000000    0.16685983    0.02850000
opls_146-416    H    0.92479004    0.00000000    0.01504024    0.04840000
opls_144-417    H    0.78078994    0.00000000    0.58314017    0.02850000
opls_146-418    H    0.57520996    0.50000000    0.51504024    0.04840000
opls_144-419    H    0.71921006    0.50000000    0.08314017    0.02850000
opls_750-420    N    0.00000000    0.67295993    0.77538008    -0.19080000
opls_750-421    N    0.50000000    0.17295993    0.27538008    -0.19080000
opls_750-422    N    0.50000000    0.82704007    0.27538008    -0.19080000
opls_750-423    N    0.00000000    0.32704007    0.77538008    -0.19070000
opls_750-424    N    0.32704007    0.50000000    0.02538008    -0.19080000
opls_750-425    N    0.17295993    0.00000000    0.52538008    -0.19080000
opls_750-426    N    0.50000000    0.67295993    0.97461992    -0.19080000
opls_750-427    N    0.00000000    0.17295993    0.47461992    -0.19080000
opls_750-428    N    0.00000000    0.82704007    0.47461992    -0.19080000
opls_750-429    N    0.50000000    0.32704007    0.97461992    -0.19080000
opls_750-430    N    0.17295993    0.50000000    0.72461992    -0.19070000
opls_750-431    N    0.32704007    0.00000000    0.22461992    -0.19080000
opls_750-432    N    0.82704007    0.50000000    0.72461992    -0.19080000
opls_750-433    N    0.67295993    0.00000000    0.22461992    -0.19080000
opls_750-434    N    0.82704007    0.00000000    0.52538008    -0.19080000
opls_750-435    N    0.67295993    0.50000000    0.02538008    -0.19080000
