#======================================================================
# Crystal Data Generated By AuToFF
#----------------------------------------------------------------------

data_AuToFF_phase_1

_cell_length_a                         3.9280
_cell_length_b                         23.3930
_cell_length_c                         23.5440
_cell_angle_alpha                      84.51
_cell_angle_beta                       87.07
_cell_angle_gamma                      87.05
_symmetry_space_group_name_H-M_alt     'P 1'
_symmetry_space_group_IT_number        1

loop_
_space_group_symop_operation_xyz
   'x, y, z'

loop_
   _atom_site_label
   _atom_site_type_symbol
   _atom_site_fract_x
   _atom_site_fract_y
   _atom_site_fract_z
   _atom_site_charge
opls_750-0    N    0.19600061    0.04510006    0.45910009    -0.24330000
opls_750-1    N    0.16499915    0.44839992    0.07789988    -0.24800000
opls_750-2    N    0.68899900    0.38400026    0.79839979    -0.19640000
opls_750-3    N    0.71100042    0.75560018    0.41669981    -0.26150000
opls_700-4    C    0.44399998    0.42530002    0.41939986    0.00120000
opls_700-5    C    0.28699999    0.21750006    0.48800014    0.07860000
opls_145-6    C    0.40800102    0.40349989    0.22890013    -0.07310000
opls_145-7    C    0.18199980    0.36050018    0.35599976    -0.07270000
opls_700-8    C    0.35900037    0.32460015    0.45160010    -0.00210000
opls_700-9    C    0.53199910    0.52580026    0.38369993    0.04540000
opls_145-10    C    0.80400027    0.61680020    0.35309980    -0.08610000
opls_145-11    C    0.08399892    0.49040006    0.22610013    -0.09730000
opls_145-12    C    0.52199983    0.41430017    0.70449995    -0.13180000
opls_700-13    C    0.31299967    0.27950025    0.49689992    0.04740000
opls_145-14    C    0.14000033    0.44019983    0.14059987    0.24160000
opls_145-15    C    0.83500090    0.67440002    0.35430011    -0.13970000
opls_145-16    C    0.78799924    0.31959993    0.72030000    -0.12920000
opls_145-17    C    0.19400055    0.31730009    0.40200011    -0.06900000
opls_700-18    C    0.27899922    0.44950012    0.25749989    0.08300000
opls_145-19    C    0.67500009    0.70180021    0.39920011    0.27880000
opls_145-20    C    0.39899967    0.29390015    0.55049979    -0.07520000
opls_700-21    C    0.52600046    0.34560001    0.56459976    0.03600000
opls_700-22    C    0.31299980    0.41459987    0.36480001    0.03830000
opls_700-23    C    0.30199973    0.45910017    0.31980006    0.04720000
opls_145-24    C    0.45999895    0.61260022    0.44050005    -0.07020000
opls_145-25    C    0.67000034    0.49090023    0.48099992    -0.07250000
opls_145-26    C    0.43499889    0.51250008    0.32869984    -0.05050000
opls_700-27    C    0.52999944    0.39070009    0.52000005    -0.00060000
opls_145-28    C    0.49999946    0.40549989    0.64749992    -0.07180000
opls_145-29    C    0.64900052    0.44500028    0.52619978    -0.07270000
opls_145-30    C    0.67399919    0.37100020    0.74070008    0.26360000
opls_145-31    C    0.32499957    0.14009991    0.42479995    -0.08840000
opls_142-32    C    0.45600082    0.45490024    0.05189979    0.01740000
opls_145-33    C    0.11100132    0.18310009    0.53049996    -0.08610000
opls_145-34    C    0.01399923    0.48620020    0.16990016    -0.15130000
opls_145-35    C    0.77399939    0.31250002    0.66239995    -0.08610000
opls_700-36    C    0.62500068    0.35540015    0.62460013    0.08660000
opls_145-37    C    0.15100038    0.10550015    0.46919975    0.23890000
opls_142-38    C    0.78400018    0.80219995    0.38060006    0.03870000
opls_145-39    C    0.39500018    0.19539986    0.43670007    -0.08490000
opls_145-40    C    0.04999922    0.12660012    0.52100002    -0.10200000
opls_700-41    C    0.78399859    0.85820002    0.40570013    0.06690000
opls_145-42    C    0.48600041    0.67159988    0.44510008    -0.09900000
opls_145-43    C    0.47300141    0.39330012    0.96900006    -0.06900000
opls_142-44    C    0.93500113    0.40190014    0.82249989    0.01730000
opls_700-45    C    0.47000031    0.37990013    0.46200005    -0.00300000
opls_145-46    C    0.61199904    0.38099995    0.91589996    -0.08780000
opls_145-47    C    0.58699895    0.90040020    0.37670013    -0.09950000
opls_700-48    C    0.58300043    0.47910013    0.42679989    0.02640000
opls_145-49    C    0.95899974    0.46130032    0.90630007    -0.08610000
opls_700-50    C    0.58599980    0.44170001    0.99309973    0.07250000
opls_700-51    C    0.61799863    0.58360010    0.39750003    0.07950000
opls_145-52    C    0.82600047    0.47260004    0.96039971    -0.12290000
opls_700-53    C    0.62200064    0.96679987    0.44999998    0.06590000
opls_145-54    C    0.33600113    0.39799990    0.17049989    -0.10560000
opls_145-55    C    0.90800068    0.87120003    0.46020002    -0.07510000
opls_145-56    C    0.83500039    0.92680003    0.47970009    -0.07300000
opls_145-57    C    0.50300048    0.95240000    0.39489994    -0.07320000
opls_142-58    C    0.51299960    0.02489987    0.46409995    0.01740000
opls_145-59    C    0.84099990    0.41309998    0.88390005    0.06910000
opls_146-60    H    0.57728916    0.36842024    0.25169997    0.05250000
opls_146-61    H    0.07116038    0.35138992    0.31415007    0.05250000
opls_146-62    H    0.92761885    0.59386024    0.31615984    0.05250000
opls_146-63    H    0.97879043    0.52904987    0.24860011    0.05250000
opls_146-64    H    0.41673023    0.45633014    0.72081002    0.05250000
opls_146-65    H    0.98999963    0.69946994    0.31892994    0.05250000
opls_146-66    H    0.89357942    0.28298010    0.75085997    0.05250000
opls_146-67    H    0.06652131    0.27502992    0.39918986    0.05250000
opls_146-68    H    0.36836901    0.26154012    0.58959988    0.05250000
opls_146-69    H    0.29561029    0.58859001    0.47532004    0.05250000
opls_146-70    H    0.75372006    0.53549985    0.48815007    0.05250000
opls_146-71    H    0.46387898    0.54551984    0.29009995    0.05250000
opls_146-72    H    0.37501133    0.44016990    0.61694978    0.05250000
opls_146-73    H    0.73265006    0.45172016    0.57064999    0.05250000
opls_146-74    H    0.40611886    0.12470025    0.38141977    0.05250000
opls_144-75    H    0.67013970    0.47376009    0.07399995    0.03100000
opls_146-76    H    0.01972902    0.20132002    0.57213991    0.05250000
opls_146-77    H    0.84827990    0.52111010    0.14609992    0.05250000
opls_146-78    H    0.88484944    0.27128012    0.64508009    0.05250000
opls_144-79    H    0.84189903    0.79748987    0.33329005    0.03100000
opls_146-80    H    0.54637107    0.22287989    0.40269979    0.05250000
opls_146-81    H    0.91653068    0.09741006    0.55582984    0.05250000
opls_146-82    H    0.36954087    0.69559991    0.48185978    0.05250000
opls_146-83    H    0.27309923    0.36469994    0.99203996    0.05250000
opls_144-84    H    0.19061911    0.40785023    0.79802005    0.03100000
opls_146-85    H    0.53442050    0.34126025    0.89615001    0.05250000
opls_146-86    H    0.48197883    0.89259015    0.33399998    0.05250000
opls_146-87    H    0.15323993    0.49070993    0.88279970    0.05250000
opls_146-88    H    0.91623102    0.51063025    0.98152981    0.05250000
opls_146-89    H    0.44068086    0.35879007    0.14884012    0.05250000
opls_146-90    H    0.06260054    0.83709003    0.48711977    0.05250000
opls_146-91    H    0.95412048    0.93804007    0.52012008    0.05250000
opls_146-92    H    0.34045872    0.98511014    0.36774012    0.05250000
opls_144-93    H    0.71193044    0.05275998    0.47977014    0.03100000
