#======================================================================
# Crystal Data Generated By AuToFF
#----------------------------------------------------------------------

data_AuToFF_phase_1

_cell_length_a                         29.8513
_cell_length_b                         29.8678
_cell_length_c                         3.7019
_cell_angle_alpha                      87.00
_cell_angle_beta                       83.28
_cell_angle_gamma                      59.13
_symmetry_space_group_name_H-M_alt     'P 1'
_symmetry_space_group_IT_number        1

loop_
_space_group_symop_operation_xyz
   'x, y, z'

loop_
   _atom_site_label
   _atom_site_type_symbol
   _atom_site_fract_x
   _atom_site_fract_y
   _atom_site_fract_z
   _atom_site_charge
opls_142-0    C    0.26686979    0.64112987    0.68970038    0.13480000
opls_700-1    C    0.20928995    0.66826000    0.70099147    -0.10040000
opls_166-2    C    0.18706998    0.63570006    0.70853156    0.18220000
opls_166-3    C    0.17464984    0.72302016    0.71328084    0.37030000
opls_700-4    C    0.13208980    0.65688995    0.73371143    -0.17250000
opls_700-5    C    0.11928980    0.74548014    0.75163953    -0.12980000
opls_166-6    C    0.09898005    0.71154987    0.77054143    0.40170000
opls_142-7    C    0.10566980    0.62675006    0.73380935    0.11800000
opls_142-8    C    0.08849961    0.80309022    0.75738980    0.13070000
opls_181-9    C    0.21548982    0.54491013    0.79853115    -0.16340000
opls_181-10    C    0.23650994    0.74936014    0.57208100    -0.16240000
opls_181-11    C    0.00944987    0.77390020    0.91282114    -0.16390000
opls_142-12    C    0.87255998    0.42132000    0.67884179    0.13390000
opls_142-13    C    0.03731981    0.08113014    0.00659894    -0.01240000
opls_261-14    C    0.01032979    0.13529014    0.02021026    -0.16960000
opls_145-15    C    0.01876969    0.88488022    0.68429012    0.25200000
opls_145-16    C    0.04397001    0.91226008    0.61695976    -0.17910000
opls_145-17    C    0.96478970    0.91278023    0.74606063    -0.17190000
opls_700-18    C    0.01610988    0.96696003    0.61686999    0.02010000
opls_145-19    C    0.93733996    0.96699989    0.74888136    -0.11220000
opls_700-20    C    0.96241974    0.99474016    0.68572089    0.02450000
opls_280-21    C    0.04379975    0.99517021    0.54493995    0.33670000
opls_280-22    C    0.93204008    0.05272993    0.69518136    0.33680000
opls_700-23    C    0.84616993    0.39073016    0.69435173    -0.09780000
opls_166-24    C    0.88008009    0.33549985    0.69812994    0.18210000
opls_166-25    C    0.79126977    0.41123017    0.71066955    0.18580000
opls_700-26    C    0.86001966    0.30144016    0.71560107    -0.12120000
opls_700-27    C    0.76965981    0.37812023    0.73796021    -0.10040000
opls_166-28    C    0.80453998    0.32355996    0.74346023    0.18580000
opls_142-29    C    0.89124984    0.24408011    0.71193983    0.13070000
opls_142-30    C    0.71189008    0.40493994    0.74961035    0.13190000
opls_181-31    C    0.96922996    0.27303012    0.77994206    -0.16390000
opls_181-32    C    0.76379001    0.49987988    0.59501952    -0.16250000
opls_181-33    C    0.74273981    0.29615989    0.87578169    -0.15980000
opls_145-34    C    0.09413978    0.56115004    0.62773131    0.25120000
MOF2_C_3-35    C    0.01205994    0.05306013    0.06248045    0.04220000
opls_145-36    C    0.03890983    0.08158997    0.50535994    -0.11200000
opls_145-37    C    0.93258972    0.13528007    0.63994995    -0.17650000
opls_145-38    C    0.01162993    0.13577019    0.51921063    -0.15860000
opls_145-39    C    0.95818994    0.16334005    0.58895100    0.25220000
opls_147-40    C    0.01576969    0.55447018    0.69424021    0.02060000
opls_700-41    C    0.01394988    0.05321015    0.56086064    0.01290000
opls_700-42    C    0.96020977    0.08076015    0.62912944    0.02010000
opls_145-43    C    0.88370993    0.48910988    0.76996205    0.24000000
opls_145-44    C    0.93767983    0.46602016    0.71143117    -0.17820000
opls_145-45    C    0.85542985    0.54149020    0.83131095    -0.15040000
opls_147-46    C    0.96248989    0.49516989    0.70732112    0.01960000
opls_145-47    C    0.88021003    0.57023995    0.83036980    -0.11370000
opls_147-48    C    0.93373996    0.54780003    0.76760102    0.02020000
opls_280-49    C    0.01912993    0.47004000    0.63495043    0.33840000
opls_280-50    C    0.95937975    0.57936999    0.76875978    0.33870000
opls_147-51    C    0.04453989    0.50187999    0.63348158    0.01950000
opls_145-52    C    0.09780986    0.47992008    0.56730181    -0.10460000
opls_145-53    C    0.04034970    0.58386020    0.68863955    -0.18250000
opls_145-54    C    0.34610975    0.62890012    0.77300039    0.24000000
opls_145-55    C    0.37773989    0.57537015    0.72861942    -0.17830000
opls_145-56    C    0.37029993    0.65614013    0.82010962    -0.15740000
opls_700-57    C    0.43242995    0.55013015    0.72319012    0.02010000
opls_145-58    C    0.42452997    0.63092996    0.81811035    -0.11370000
opls_700-59    C    0.45636980    0.57792997    0.76825112    0.02450000
opls_280-60    C    0.46464991    0.49411020    0.66493125    0.33820000
opls_280-61    C    0.51434993    0.55185019    0.76674147    0.33780000
opls_700-62    C    0.52259972    0.46782020    0.66583976    0.02890000
opls_700-63    C    0.54649967    0.49565017    0.71099052    0.02090000
opls_145-64    C    0.55449983    0.41463003    0.61851021    -0.11750000
opls_145-65    C    0.60112983    0.47031006    0.70806098    -0.17620000
opls_145-66    C    0.60865997    0.38929000    0.61953024    -0.15570000
opls_145-67    C    0.63276006    0.41661001    0.66666939    0.25210000
opls_145-68    C    0.12232984    0.50896021    0.56439131    -0.14840000
opls_750-69    N    0.29113003    0.65676988    0.77865002    -0.35240000
opls_750-70    N    0.12128963    0.58824024    0.62336013    -0.14690000
opls_750-71    N    0.04560973    0.83005023    0.68307152    -0.15190000
opls_750-72    N    0.85650995    0.46201986    0.77836169    -0.35790000
opls_750-73    N    0.93195980    0.21807002    0.59662981    -0.14870000
opls_750-74    N    0.68772994    0.38890011    0.66246141    -0.12880000
opls_179-75    O    0.18933001    0.75991998    0.68745087    -0.13580000
opls_179-76    O    0.22423976    0.58324001    0.69704190    -0.11700000
opls_179-77    O    0.04727970    0.72595003    0.81565139    -0.11810000
opls_179-78    O    0.75323992    0.46308010    0.69818978    -0.11820000
opls_179-79    O    0.93234993    0.32038001    0.69222190    -0.11670000
opls_179-80    O    0.79019993    0.28625009    0.76353992    -0.11880000
opls_281-81    O    0.08899977    0.97137008    0.47377154    -0.30000000
opls_281-82    O    0.88615976    0.07667010    0.75976988    -0.30260000
opls_281-83    O    0.04309984    0.42545022    0.57483101    -0.29840000
opls_281-84    O    0.93566987    0.62357998    0.83227114    -0.31970000
opls_281-85    O    0.44409980    0.47130003    0.61408190    -0.29990000
opls_281-86    O    0.53499002    0.57496987    0.81414990    -0.30170000
opls_185-87    H    0.25123975    0.51213010    0.92150095    0.06560000
opls_185-88    H    0.20795985    0.52939003    0.55171026    0.06560000
opls_185-89    H    0.17974982    0.56027013    0.00961008    0.06560000
opls_185-90    H    0.23860985    0.75861010    0.27002054    0.06560000
opls_185-91    H    0.26543973    0.70622997    0.61516178    0.06560000
opls_185-92    H    0.24694977    0.77396024    0.72966937    0.06560000
opls_185-93    H    0.98207981    0.77208021    0.14747236    0.06560000
opls_185-94    H    0.98627993    0.79423995    0.67185116    0.06570000
opls_185-95    H    0.02742981    0.79664002    0.00276089    0.06560000
opls_185-96    H    0.98874003    0.24796005    0.52336149    0.06560000
opls_185-97    H    0.95077994    0.25458004    0.97376202    0.06560000
opls_185-98    H    0.99990991    0.27581015    0.91817972    0.06560000
opls_185-99    H    0.76045991    0.50688998    0.29110939    0.06560000
opls_185-100    H    0.80534996    0.48713010    0.65313150    0.06560000
opls_185-101    H    0.73467994    0.53745003    0.75156065    0.06560000
opls_185-102    H    0.74452988    0.25892009    0.98462062    0.06560000
opls_185-103    H    0.71756991    0.31124022    0.63923185    0.06570000
opls_185-104    H    0.72477967    0.32694999    0.10127164    0.06560000
opls_144-105    H    0.29198003    0.59939993    0.58128035    0.02820000
opls_144-106    H    0.10651981    0.82609997    0.84165001    0.02820000
opls_144-107    H    0.91493977    0.40348003    0.55222163    0.02820000
opls_144-108    H    0.08189017    0.05828990    0.94764100    0.04770000
MOF2_H_-109    H    0.03276014    0.15688982    0.97283991    0.04770000
opls_146-110    H    0.08854994    0.89067013    0.55928026    0.04770000
opls_146-111    H    0.94214959    0.89140024    0.79559074    0.04770000
opls_146-112    H    0.89272988    0.98959007    0.80483088    0.04770000
opls_144-113    H    0.87323998    0.22068012    0.84209066    0.02820000
opls_144-114    H    0.68652969    0.44675010    0.85613176    0.02820000
opls_146-115    H    0.08349003    0.05898002    0.44651081    0.04770000
opls_146-116    H    0.88795991    0.15669988    0.69219198    0.04770000
opls_146-117    H    0.03382979    0.15761020    0.47218029    0.04780000
opls_146-118    H    0.96330006    0.42208996    0.66475172    0.04770000
opls_146-119    H    0.81082996    0.56240015    0.88440981    0.04770000
opls_146-120    H    0.85594975    0.61412022    0.88303072    0.04770000
opls_146-121    H    0.12387983    0.43622012    0.51171950    0.04770000
opls_146-122    H    0.01453990    0.62776011    0.73631999    0.04770000
opls_146-123    H    0.35941991    0.55063988    0.69529017    0.04770000
opls_146-124    H    0.34601981    0.70023992    0.86193099    0.04770000
opls_146-125    H    0.44403984    0.65432991    0.85878113    0.04770000
opls_146-126    H    0.53663976    0.38973010    0.57652019    0.04770000
opls_146-127    H    0.62071996    0.49387992    0.74023148    0.04770000
opls_146-128    H    0.63347972    0.34516013    0.58067105    0.04770000
opls_146-129    H    0.16689008    0.48814989    0.50751969    0.04770000
opls_144-130    H    0.06344003    0.64400997    0.86221116    0.02820000
