#======================================================================
# Crystal Data Generated By AuToFF
#----------------------------------------------------------------------

data_AuToFF_phase_1

_cell_length_a                         35.4000
_cell_length_b                         33.9000
_cell_length_c                         8.7400
_cell_angle_alpha                      90.00
_cell_angle_beta                       75.20
_cell_angle_gamma                      90.00
_symmetry_space_group_name_H-M_alt     'P 1'
_symmetry_space_group_IT_number        1

loop_
_space_group_symop_operation_xyz
   'x, y, z'

loop_
   _atom_site_label
   _atom_site_type_symbol
   _atom_site_fract_x
   _atom_site_fract_y
   _atom_site_fract_z
   _atom_site_charge
opls_145-0    C    0.79835990    0.33753009    0.68138021    -0.09960000
opls_700-1    C    0.76259997    0.33568997    0.62352013    0.06250000
opls_145-2    C    0.75024983    0.37020000    0.56266953    -0.11860000
opls_145-3    C    0.77153987    0.40514985    0.55575950    -0.13020000
opls_142-4    C    0.74127983    0.29804012    0.62852010    0.06960000
opls_142-5    C    0.72617995    0.92565988    0.45958954    0.06950000
opls_700-6    C    0.75952001    0.89918997    0.45916942    0.05580000
opls_145-7    C    0.06213999    0.69408997    0.33901023    -0.12410000
opls_145-8    C    0.02166984    0.69258997    0.37036984    -0.12770000
opls_700-9    C    0.00105006    0.65821003    0.43038968    0.02350000
opls_700-10    C    0.02250006    0.62327994    0.44212927    -0.00230000
opls_700-11    C    0.06418989    0.62467994    0.40678032    -0.00620000
opls_700-12    C    0.08389005    0.66103009    0.36256041    0.03150000
opls_700-13    C    0.08594993    0.58996991    0.41849979    0.02490000
opls_145-14    C    0.06540992    0.55447994    0.45949960    -0.12410000
opls_145-15    C    0.02510001    0.55255988    0.48151015    -0.13180000
opls_700-16    C    0.00253004    0.58678997    0.48360955    0.01530000
opls_700-17    C    0.95965001    0.65737994    0.47484982    0.02800000
opls_145-18    C    0.94077995    0.62183009    0.52751940    -0.17670000
opls_700-19    C    0.96083990    0.58598997    0.52337977    0.03600000
opls_700-20    C    0.12492989    0.66320000    0.33925993    0.02800000
opls_145-21    C    0.14579000    0.62871003    0.34945988    -0.17890000
opls_700-22    C    0.12741993    0.59205988    0.38914017    0.06090000
opls_700-23    C    0.14692994    0.70123009    0.32050973    0.06930000
opls_700-24    C    0.15326982    0.55793009    0.40485015    0.06710000
opls_700-25    C    0.93414985    0.69187994    0.46253035    0.06740000
opls_700-26    C    0.93601007    0.54931003    0.55040923    0.06180000
opls_145-27    C    0.15171996    0.52144012    0.32946945    -0.12980000
opls_145-28    C    0.17802989    0.49102006    0.33844929    -0.18590000
opls_145-29    C    0.20747005    0.49708997    0.41818974    0.19000000
opls_145-30    C    0.20995986    0.53380000    0.48762018    -0.16950000
opls_145-31    C    0.18288987    0.56350000    0.48395984    -0.13020000
opls_145-32    C    0.18247990    0.70543009    0.20460968    -0.13340000
opls_145-33    C    0.20567010    0.73911003    0.20089964    -0.18120000
opls_145-34    C    0.19361006    0.76927994    0.31386005    0.18790000
opls_145-35    C    0.15763002    0.76555015    0.42574000    -0.17350000
opls_145-36    C    0.13474995    0.73180000    0.43040033    -0.11910000
opls_145-37    C    0.90371994    0.54724985    0.48415037    -0.12920000
opls_145-38    C    0.87875985    0.51477994    0.50942007    -0.16560000
opls_145-39    C    0.88570000    0.48252006    0.59956994    0.18860000
opls_145-40    C    0.91785986    0.48413009    0.66548916    -0.17980000
opls_145-41    C    0.94193992    0.51765988    0.64598984    -0.13240000
opls_145-42    C    0.90327997    0.68664012    0.39019934    -0.12620000
opls_145-43    C    0.87657985    0.71687994    0.38956975    -0.16990000
opls_145-44    C    0.88047993    0.75352006    0.45709961    0.19040000
opls_145-45    C    0.91140998    0.75930000    0.52917974    -0.18820000
opls_145-46    C    0.93769985    0.72851003    0.53355960    -0.12990000
opls_142-47    C    0.23390984    0.42986991    0.40525015    0.06920000
opls_700-48    C    0.26579010    0.40312006    0.42201930    0.05640000
opls_145-49    C    0.30156991    0.41791003    0.43983934    -0.13190000
opls_145-50    C    0.33133008    0.39214985    0.45513986    -0.13210000
opls_700-51    C    0.32580986    0.35114012    0.45529015    0.06540000
opls_145-52    C    0.28997998    0.33631003    0.43834940    -0.13320000
opls_145-53    C    0.26040001    0.36207994    0.42089032    -0.13160000
opls_142-54    C    0.82749986    0.44463009    0.59288950    0.06960000
opls_700-55    C    0.80589986    0.40686991    0.60823026    0.05580000
opls_145-56    C    0.81907995    0.37294012    0.67132937    -0.12950000
opls_145-57    C    0.31444014    0.85330000    0.19036951    -0.09960000
opls_700-58    C    0.27328998    0.84632006    0.27680934    0.06340000
opls_145-59    C    0.25516010    0.87382006    0.39201945    -0.11980000
opls_145-60    C    0.27569984    0.90667994    0.42427018    -0.13200000
opls_142-61    C    0.25274996    0.81054985    0.24411955    0.06940000
opls_145-62    C    0.79763993    0.91384985    0.43936952    -0.13320000
opls_145-63    C    0.82845002    0.88831003    0.44440973    -0.13280000
opls_700-64    C    0.82188999    0.84761003    0.46678951    0.05920000
opls_145-65    C    0.78379004    0.83297994    0.48569948    -0.13250000
opls_145-66    C    0.75292989    0.85856991    0.48306990    -0.13080000
opls_142-67    C    0.85486982    0.82093009    0.47006996    0.06950000
opls_700-68    C    0.31495991    0.91317994    0.34359009    0.06320000
opls_145-69    C    0.33409008    0.88638997    0.22635988    -0.13110000
opls_142-70    C    0.35802988    0.32447994    0.46845932    0.06700000
opls_145-71    C    0.38071010    0.25846991    0.51269935    0.18950000
opls_145-72    C    0.41955984    0.26124012    0.42047020    -0.18000000
opls_145-73    C    0.44581985    0.23013009    0.41778974    -0.13110000
opls_700-74    C    0.43388010    0.19567994    0.50642956    0.06190000
opls_145-75    C    0.39547979    0.19377994    0.60303028    -0.13270000
opls_145-76    C    0.36919006    0.22471003    0.60499950    -0.17240000
opls_700-77    C    0.45917990    0.15970000    0.48311014    0.02740000
opls_142-78    C    0.33513988    0.94831003    0.38503013    0.07000000
opls_145-79    C    0.39463012    0.98775988    0.35259951    0.18730000
opls_145-80    C    0.38066997    0.01424985    0.47851963    -0.16960000
opls_145-81    C    0.40338007    0.04644012    0.50066982    -0.13250000
opls_700-82    C    0.44061995    0.05302006    0.39889989    0.06330000
opls_145-83    C    0.45430011    0.02663009    0.27315965    -0.11800000
opls_145-84    C    0.43194011    0.99394012    0.25253963    -0.17100000
opls_700-85    C    0.49816995    0.15914012    0.49795031    0.03190000
opls_700-86    C    0.52040987    0.12376991    0.46698951    -0.00580000
opls_700-87    C    0.50290002    0.08844012    0.42987962    0.02490000
opls_700-88    C    0.46324006    0.08892006    0.42171990    0.02970000
opls_145-89    C    0.44287989    0.12476991    0.44334938    -0.17870000
opls_700-90    C    0.56006995    0.12354985    0.47680011    -0.00390000
opls_700-91    C    0.57725004    0.15860000    0.51835021    0.02020000
opls_145-92    C    0.55322004    0.19178997    0.56401982    -0.12150000
opls_145-93    C    0.51498995    0.19243009    0.54946959    -0.12780000
opls_145-94    C    0.52522991    0.05360000    0.40783002    -0.11730000
opls_145-95    C    0.56410010    0.05362006    0.41361934    -0.12670000
opls_700-96    C    0.58223985    0.08815988    0.44720025    0.03030000
opls_700-97    C    0.61759983    0.15895988    0.51662004    0.03690000
opls_145-98    C    0.63893988    0.12374985    0.48202020    -0.17630000
opls_700-99    C    0.62199005    0.08835988    0.45142982    0.02870000
opls_145-100    C    0.70177993    0.99050000    0.40954954    0.18820000
opls_145-101    C    0.66501987    0.98916991    0.52002002    -0.18170000
opls_145-102    C    0.63825999    0.02005015    0.52844957    -0.13110000
opls_700-103    C    0.64744992    0.05262006    0.42632934    0.06820000
opls_145-104    C    0.68374003    0.05331003    0.31355946    -0.13210000
opls_145-105    C    0.71065010    0.02268997    0.30617962    -0.17190000
opls_145-106    C    0.68785010    0.26101003    0.56202929    0.19000000
opls_145-107    C    0.69331989    0.22471003    0.63141003    -0.16890000
opls_145-108    C    0.66913998    0.19257994    0.62327989    -0.13160000
opls_700-109    C    0.63971994    0.19524012    0.54137969    0.06740000
opls_145-110    C    0.63501005    0.23144012    0.46958003    -0.13270000
opls_145-111    C    0.65824010    0.26402006    0.48280955    -0.17180000
opls_145-112    C    0.19638983    0.22572006    0.12218049    -0.09960000
opls_700-113    C    0.16062986    0.22387994    0.06432987    0.06250000
opls_145-114    C    0.14828004    0.25838997    0.00346981    -0.11860000
opls_145-115    C    0.16956979    0.29334012    0.99655978    -0.13020000
opls_142-116    C    0.13931001    0.18623009    0.06932985    0.06960000
opls_142-117    C    0.12420988    0.81384985    0.90038982    0.06950000
opls_700-118    C    0.15754990    0.78737994    0.89997917    0.05580000
opls_145-119    C    0.46016988    0.58227994    0.77981998    -0.12410000
opls_145-120    C    0.41969976    0.58077994    0.81117012    -0.12780000
opls_700-121    C    0.39907995    0.54640000    0.87119943    0.02350000
opls_700-122    C    0.42052999    0.51146991    0.88292955    -0.00230000
opls_700-123    C    0.46221979    0.51286991    0.84759007    -0.00620000
opls_700-124    C    0.48192004    0.54922006    0.80335951    0.03140000
opls_700-125    C    0.48397985    0.47815988    0.85930007    0.02490000
opls_145-126    C    0.46343984    0.44266991    0.90029988    -0.12410000
opls_145-127    C    0.42313001    0.44075015    0.92230924    -0.13180000
opls_700-128    C    0.40055996    0.47497994    0.92440983    0.01530000
opls_700-129    C    0.35767990    0.54556991    0.91565957    0.02800000
opls_145-130    C    0.33880984    0.51002006    0.96832914    -0.17630000
opls_700-131    C    0.35886982    0.47417994    0.96418005    0.03600000
opls_700-132    C    0.52295982    0.55138997    0.78006021    0.02800000
opls_145-133    C    0.54381992    0.51690000    0.79026016    -0.17890000
opls_700-134    C    0.52544993    0.48024985    0.82993927    0.03630000
opls_700-135    C    0.54495983    0.58942006    0.76131947    0.06750000
opls_700-136    C    0.55129999    0.44612006    0.84565990    0.06710000
opls_700-137    C    0.33217985    0.58006991    0.90332945    0.06740000
opls_700-138    C    0.33403988    0.43750000    0.99122016    0.06180000
opls_145-139    C    0.54974985    0.40963009    0.77027919    -0.12950000
opls_145-140    C    0.57605999    0.37921003    0.77926022    -0.18590000
opls_145-141    C    0.60549994    0.38527994    0.85899948    0.19000000
opls_145-142    C    0.60799004    0.42198997    0.92842992    -0.16950000
opls_145-143    C    0.58091979    0.45168997    0.92476012    -0.13020000
opls_145-144    C    0.58050982    0.59362006    0.64540996    -0.13320000
opls_145-145    C    0.60370002    0.62730000    0.64169992    -0.18120000
opls_145-146    C    0.59164006    0.65746991    0.75465915    0.18780000
opls_145-147    C    0.55566002    0.65374012    0.86653909    -0.17350000
opls_145-148    C    0.53277995    0.61998997    0.87119943    -0.11910000
opls_145-149    C    0.30174994    0.43544012    0.92494947    -0.12920000
opls_145-150    C    0.27678985    0.40296991    0.95021917    -0.16560000
opls_145-151    C    0.28372990    0.37071003    0.04037969    0.18850000
opls_145-152    C    0.31588996    0.37232006    0.10630009    -0.17980000
opls_145-153    C    0.33996984    0.40584985    0.08679012    -0.13240000
opls_145-154    C    0.30130986    0.57483009    0.83100908    -0.12600000
opls_145-155    C    0.27461002    0.60506991    0.83037950    -0.16990000
opls_145-156    C    0.27850985    0.64171003    0.89789989    0.19040000
opls_145-157    C    0.30943987    0.64748997    0.96998949    -0.18820000
opls_145-158    C    0.33572978    0.61670000    0.97435988    -0.12980000
opls_142-159    C    0.63193984    0.31805988    0.84604925    0.06920000
opls_700-160    C    0.66382000    0.29131003    0.86282905    0.05650000
opls_145-161    C    0.69959983    0.30610000    0.88063962    -0.13200000
opls_145-162    C    0.72936000    0.28034012    0.89594014    -0.13210000
opls_700-163    C    0.72384004    0.23933009    0.89609990    0.06540000
opls_145-164    C    0.68800990    0.22450000    0.87914968    -0.13320000
opls_145-165    C    0.65842990    0.25026991    0.86170006    -0.13160000
opls_142-166    C    0.22553006    0.33282006    0.03368978    0.06960000
opls_700-167    C    0.20393007    0.29505988    0.04903054    0.05580000
opls_145-168    C    0.21710987    0.26113009    0.11212965    -0.12950000
opls_145-169    C    0.71247007    0.74148997    0.63116979    -0.09960000
opls_700-170    C    0.67131980    0.73451003    0.71762027    0.06340000
opls_145-171    C    0.65319002    0.76201003    0.83281973    -0.11980000
opls_145-172    C    0.67372984    0.79486991    0.86506928    -0.13210000
opls_142-173    C    0.65077989    0.69874012    0.68491983    0.06940000
opls_145-174    C    0.19566982    0.80204012    0.88017927    -0.13310000
opls_145-175    C    0.22647992    0.77650000    0.88521948    -0.13280000
opls_700-176    C    0.21991988    0.73580000    0.90759925    0.05920000
opls_145-177    C    0.18181996    0.72116991    0.92649976    -0.13240000
opls_145-178    C    0.15095978    0.74675988    0.92387965    -0.13080000
opls_142-179    C    0.25289982    0.70912006    0.91086906    0.06950000
opls_700-180    C    0.71298980    0.80136991    0.78439984    0.06320000
opls_145-181    C    0.73212001    0.77457994    0.66716016    -0.13020000
opls_142-182    C    0.75605980    0.21266991    0.90925960    0.06700000
opls_145-183    C    0.77873999    0.14665988    0.95350910    0.18960000
opls_145-184    C    0.81758984    0.14943009    0.86126930    -0.18000000
opls_145-185    C    0.84385002    0.11832006    0.85859949    -0.13110000
opls_700-186    C    0.83191002    0.08386991    0.94722984    0.06190000
opls_145-187    C    0.79350996    0.08196991    0.04384003    -0.13270000
opls_145-188    C    0.76721988    0.11290000    0.04581043    -0.17240000
opls_700-189    C    0.85720979    0.04788997    0.92391989    0.02740000
opls_142-190    C    0.73316988    0.83650000    0.82582923    0.06960000
opls_145-191    C    0.79266005    0.87594985    0.79339979    0.18740000
opls_145-192    C    0.77869987    0.90244012    0.91932938    -0.16950000
opls_145-193    C    0.80140996    0.93463009    0.94147957    -0.13250000
opls_700-194    C    0.83864984    0.94121003    0.83970963    0.06350000
opls_145-195    C    0.85233003    0.91482006    0.71395993    -0.11800000
opls_145-196    C    0.82997000    0.88213009    0.69334938    -0.17100000
opls_700-197    C    0.89619984    0.04733009    0.93876005    0.03190000
opls_700-198    C    0.91843979    0.01195988    0.90778979    -0.00580000
opls_700-199    C    0.90092994    0.97663009    0.87067990    0.02490000
opls_700-200    C    0.86126998    0.97711003    0.86252018    0.02970000
opls_145-201    C    0.84091007    0.01295988    0.88415913    -0.17870000
opls_700-202    C    0.95809984    0.01174012    0.91760986    -0.00390000
opls_700-203    C    0.97528004    0.04678997    0.95914931    0.02020000
opls_145-204    C    0.95124996    0.07997994    0.00482010    -0.12150000
opls_145-205    C    0.91301987    0.08062006    0.99026987    -0.12780000
opls_145-206    C    0.92325980    0.94178997    0.84863977    -0.11730000
opls_145-207    C    0.96212999    0.94181003    0.85442909    -0.12670000
opls_700-208    C    0.98027002    0.97634985    0.88801000    0.03030000
opls_700-209    C    0.01562983    0.04714985    0.95741914    0.03690000
opls_145-210    C    0.03696977    0.01194012    0.92282995    -0.17630000
opls_700-211    C    0.02001994    0.97654985    0.89223956    0.02870000
opls_145-212    C    0.09980983    0.87868997    0.85035929    0.18820000
opls_145-213    C    0.06304987    0.87735988    0.96081912    -0.18120000
opls_145-214    C    0.03628988    0.90824012    0.96925932    -0.13110000
opls_700-215    C    0.04547984    0.94081003    0.86712962    0.06820000
opls_145-216    C    0.08176996    0.94150000    0.75435974    -0.13210000
opls_145-217    C    0.10868002    0.91087994    0.74697990    -0.17190000
opls_145-218    C    0.08587991    0.14920000    0.00284022    0.19000000
opls_145-219    C    0.09135006    0.11290000    0.07221978    -0.16880000
opls_145-220    C    0.06717015    0.08076991    0.06408964    -0.13160000
opls_700-221    C    0.03774983    0.08343009    0.98218943    0.06740000
opls_145-222    C    0.03304004    0.11963009    0.91037912    -0.13260000
opls_145-223    C    0.05627002    0.15221003    0.92360983    -0.17190000
opls_146-224    H    0.80865989    0.31163009    0.73091015    0.11620000
opls_146-225    H    0.72428004    0.37022006    0.51877033    0.11470000
opls_146-226    H    0.80358999    0.94508997    0.42198972    0.11470000
opls_146-227    H    0.72381981    0.84655015    0.49922012    0.11150000
opls_146-228    H    0.07621985    0.72158997    0.29512996    0.11540000
opls_146-229    H    0.00687999    0.71885988    0.34655931    0.11850000
opls_146-230    H    0.07997982    0.52742006    0.47491018    0.11990000
opls_146-231    H    0.01239000    0.52356991    0.49709942    0.09320000
opls_146-232    H    0.90915994    0.62191003    0.56761980    0.11510000
opls_146-233    H    0.17722994    0.63070000    0.32966945    0.11380000
opls_146-234    H    0.13107006    0.51684012    0.25868043    0.11430000
opls_146-235    H    0.17618991    0.46364985    0.27733005    0.11930000
opls_146-236    H    0.23256985    0.53914012    0.54844001    0.11410000
opls_146-237    H    0.18534980    0.59115988    0.54259033    0.11450000
opls_146-238    H    0.19253998    0.68233009    0.11816039    0.11140000
opls_146-239    H    0.23284007    0.74097994    0.11041013    0.11850000
opls_146-240    H    0.14797002    0.78832006    0.51397982    0.11590000
opls_146-241    H    0.10804994    0.72903009    0.52318924    0.11930000
opls_146-242    H    0.89810003    0.57062006    0.40829037    0.11710000
opls_146-243    H    0.85529983    0.51474012    0.45118958    0.11850000
opls_146-244    H    0.92346997    0.45985015    0.73711959    0.11430000
opls_146-245    H    0.96432010    0.51911003    0.71005936    0.11560000
opls_146-246    H    0.89946001    0.65875988    0.33566942    0.11610000
opls_146-247    H    0.85281998    0.71183009    0.33470966    0.11470000
opls_146-248    H    0.91439985    0.78678997    0.58772976    0.11850000
opls_146-249    H    0.96007001    0.73291003    0.59635931    0.11470000
opls_144-250    H    0.20803986    0.41716991    0.38056033    0.09630000
opls_146-251    H    0.30670999    0.44938997    0.44091034    0.11590000
opls_146-252    H    0.35868996    0.40430000    0.46756938    0.11400000
opls_146-253    H    0.28501006    0.30481003    0.43634941    0.11160000
opls_146-254    H    0.23317005    0.34991003    0.40700991    0.11260000
opls_144-255    H    0.81388987    0.47000000    0.55450980    0.11370000
opls_146-256    H    0.84528989    0.37384012    0.71349011    0.11440000
opls_146-257    H    0.32941993    0.83298997    0.09941965    0.11620000
opls_146-258    H    0.22511999    0.86983009    0.45878008    0.11470000
opls_146-259    H    0.76128987    0.43114012    0.50639997    0.11340000
opls_144-260    H    0.26857005    0.79004012    0.15623950    0.11960000
opls_146-261    H    0.85750008    0.90033009    0.42978021    0.11470000
opls_146-262    H    0.77772001    0.80178997    0.50400945    0.11440000
opls_144-263    H    0.88251991    0.83357994    0.47629005    0.11360000
opls_146-264    H    0.36421997    0.89108997    0.16209036    0.11430000
opls_146-265    H    0.26079990    0.92712006    0.51506028    0.11720000
opls_144-266    H    0.75172984    0.27280000    0.68101926    0.11300000
opls_144-267    H    0.69682990    0.91406991    0.50069940    0.10520000
opls_144-268    H    0.38713003    0.33664012    0.45071976    0.09450000
opls_146-269    H    0.42924987    0.28644012    0.34477943    0.11850000
opls_146-270    H    0.47512010    0.23247994    0.34272974    0.12170000
opls_146-271    H    0.38545007    0.16765988    0.67307965    0.11340000
opls_146-272    H    0.33940008    0.22198997    0.67625952    0.11590000
opls_146-273    H    0.35267002    0.01028997    0.56212988    0.11860000
opls_146-274    H    0.39197993    0.06607994    0.59944923    0.11140000
opls_146-275    H    0.48219997    0.03138997    0.19020028    0.11990000
opls_146-276    H    0.44319983    0.97404012    0.15458033    0.11470000
opls_146-277    H    0.41327010    0.12543009    0.42974944    0.11120000
opls_146-278    H    0.56346987    0.21772006    0.61292964    0.11860000
opls_146-279    H    0.49859998    0.21934012    0.58108956    0.12300000
opls_146-280    H    0.51295992    0.02544012    0.38950940    0.11990000
opls_146-281    H    0.57964987    0.02593009    0.39240998    0.11860000
opls_146-282    H    0.66977984    0.12368997    0.47813028    0.11710000
opls_146-283    H    0.65759988    0.96547994    0.60526932    0.11850000
opls_146-284    H    0.61092994    0.01924012    0.61861956    0.11930000
opls_146-285    H    0.69168007    0.07820000    0.23407937    0.11260000
opls_146-286    H    0.73883007    0.02434012    0.22113031    0.11640000
opls_146-287    H    0.71543997    0.22085988    0.69524996    0.11850000
opls_146-288    H    0.67369990    0.16540000    0.68101926    0.11570000
opls_146-289    H    0.61445999    0.23428997    0.39736025    0.11610000
opls_146-290    H    0.65399984    0.29151003    0.42629029    0.11590000
opls_144-291    H    0.31798001    0.96886991    0.46916938    0.11960000
opls_146-292    H    0.20669006    0.19982006    0.17171990    0.11640000
opls_146-293    H    0.12230996    0.25841003    0.95957061    0.11470000
opls_146-294    H    0.20161988    0.83327994    0.86279947    0.11480000
opls_146-295    H    0.12184980    0.73474012    0.94001922    0.11140000
opls_146-296    H    0.47424978    0.60977994    0.73593024    0.11540000
opls_146-297    H    0.40490981    0.60704985    0.78737024    0.11840000
opls_146-298    H    0.47800982    0.41561003    0.91570927    0.11990000
opls_146-299    H    0.41041989    0.41175988    0.93790917    0.09320000
opls_146-300    H    0.30718987    0.51010000    0.00842008    0.11510000
opls_146-301    H    0.57525987    0.51888997    0.77046973    0.11380000
opls_146-302    H    0.52910006    0.40503009    0.69947953    0.11470000
opls_146-303    H    0.57421980    0.35184012    0.71813980    0.11930000
opls_146-304    H    0.63059985    0.42733009    0.98923910    0.11160000
opls_146-305    H    0.58337980    0.47934985    0.98338943    0.11440000
opls_146-306    H    0.59056987    0.57052006    0.55897014    0.11400000
opls_146-307    H    0.63086996    0.62916991    0.55121988    0.11850000
opls_146-308    H    0.54599991    0.67651003    0.95478956    0.11590000
opls_146-309    H    0.50607975    0.61722006    0.96400017    0.11930000
opls_146-310    H    0.29612992    0.45881003    0.84910012    0.11340000
opls_146-311    H    0.25333004    0.40293009    0.89198986    0.11850000
opls_146-312    H    0.32150014    0.34804012    0.17792934    0.11430000
opls_146-313    H    0.36235002    0.40730000    0.15085964    0.11560000
opls_146-314    H    0.29748990    0.54695015    0.77647916    0.11610000
opls_146-315    H    0.25084987    0.60002006    0.77551941    0.11470000
opls_146-316    H    0.31242977    0.67497994    0.02853004    0.11850000
opls_146-317    H    0.35809990    0.62110000    0.03716905    0.11590000
opls_144-318    H    0.60606986    0.30535988    0.82135943    0.09630000
opls_146-319    H    0.70473999    0.33757994    0.88170944    0.11590000
opls_146-320    H    0.75671988    0.29248997    0.90836966    0.11420000
opls_146-321    H    0.68303996    0.19300000    0.87715916    0.11160000
opls_146-322    H    0.63119997    0.23810000    0.84781019    0.11340000
opls_144-323    H    0.21192004    0.35818997    0.99531955    0.11370000
opls_146-324    H    0.24332006    0.26203009    0.15429986    0.11430000
opls_146-325    H    0.72744986    0.72117994    0.54021993    0.11630000
opls_146-326    H    0.62314988    0.75802006    0.89958982    0.11470000
opls_146-327    H    0.15931987    0.31933009    0.94719907    0.11340000
opls_144-328    H    0.66659997    0.67823009    0.59703978    0.11970000
opls_146-329    H    0.25552997    0.78852006    0.87058996    0.11470000
opls_146-330    H    0.17574994    0.68997994    0.94480973    0.11440000
opls_144-331    H    0.28054991    0.72176991    0.91708915    0.11360000
opls_146-332    H    0.76224987    0.77927994    0.60290010    0.11430000
opls_146-333    H    0.65882979    0.81531003    0.95587003    0.11710000
opls_144-334    H    0.14975994    0.16098997    0.12183019    0.11300000
opls_144-335    H    0.09486008    0.80225988    0.94150915    0.10510000
opls_144-336    H    0.78515995    0.22483009    0.89152004    0.09450000
opls_146-337    H    0.82728005    0.17463009    0.78558918    0.11960000
opls_146-338    H    0.87314999    0.12066991    0.78353949    0.12170000
opls_146-339    H    0.78347999    0.05585015    0.11387993    0.11260000
opls_146-340    H    0.73743001    0.11017994    0.11705980    0.11590000
opls_146-341    H    0.75069995    0.89847994    0.00293016    0.11870000
opls_146-342    H    0.79000982    0.95426991    0.04025898    0.11140000
opls_146-343    H    0.88022997    0.91957994    0.63099938    0.11990000
opls_146-344    H    0.84122983    0.86223009    0.59537943    0.11590000
opls_146-345    H    0.81129999    0.01362006    0.87055919    0.11120000
opls_146-346    H    0.96150004    0.10591003    0.05373939    0.11860000
opls_146-347    H    0.89662991    0.10753009    0.02188984    0.12300000
opls_146-348    H    0.91099010    0.91363009    0.83031915    0.11990000
opls_146-349    H    0.97768005    0.91412006    0.83321972    0.11860000
opls_146-350    H    0.06781001    0.01187994    0.91894003    0.11710000
opls_146-351    H    0.05562980    0.85366991    0.04606960    0.11850000
opls_146-352    H    0.00895983    0.90743009    0.05942930    0.11930000
opls_146-353    H    0.08970999    0.96638997    0.67487965    0.11260000
opls_146-354    H    0.13686007    0.91253009    0.66192941    0.11640000
opls_146-355    H    0.11346986    0.10904985    0.13605971    0.11850000
opls_146-356    H    0.07173010    0.05358997    0.12181954    0.11880000
opls_146-357    H    0.01248998    0.12247994    0.83815935    0.11610000
opls_146-358    H    0.05203001    0.17970000    0.86710004    0.11590000
opls_144-359    H    0.71600982    0.85705988    0.90989983    0.11370000
opls_750-360    N    0.23614005    0.46764985    0.42773999    -0.33850000
opls_750-361    N    0.21710988    0.80334985    0.32450971    -0.34570000
opls_750-362    N    0.85125993    0.78301003    0.45678955    -0.34380000
opls_750-363    N    0.86175998    0.44746991    0.62156984    -0.33770000
opls_750-364    N    0.35152004    0.28745988    0.50473016    -0.34580000
opls_750-365    N    0.37207993    0.95468997    0.32119966    -0.33730000
opls_750-366    N    0.73182010    0.96172006    0.40790931    -0.34570000
opls_750-367    N    0.71133002    0.29540000    0.56826003    -0.33740000
opls_750-368    N    0.63416994    0.35584012    0.86854973    -0.33840000
opls_750-369    N    0.61514005    0.69154012    0.76531945    -0.34580000
opls_750-370    N    0.24928986    0.67120000    0.89758983    -0.34380000
opls_750-371    N    0.25979015    0.33565988    0.06237959    -0.33760000
opls_750-372    N    0.74954993    0.17564985    0.94553990    -0.34580000
opls_750-373    N    0.77010986    0.84287994    0.76199994    -0.33720000
opls_750-374    N    0.12985003    0.84991003    0.84870959    -0.34580000
opls_750-375    N    0.10935994    0.18358997    0.00906031    -0.33730000
