#======================================================================
# Crystal Data Generated By AuToFF
#----------------------------------------------------------------------

data_AuToFF_phase_1

_cell_length_a                         37.0544
_cell_length_b                         37.0544
_cell_length_c                         3.5489
_cell_angle_alpha                      90.00
_cell_angle_beta                       90.00
_cell_angle_gamma                      120.00
_symmetry_space_group_name_H-M_alt     'P 1'
_symmetry_space_group_IT_number        1

loop_
_space_group_symop_operation_xyz
   'x, y, z'

loop_
   _atom_site_label
   _atom_site_type_symbol
   _atom_site_fract_x
   _atom_site_fract_y
   _atom_site_fract_z
   _atom_site_charge
opls_531-0    C    0.35693007    0.64802018    0.59364028    0.38120000
opls_700-1    C    0.38259999    0.62762009    0.60311082    0.00070000
opls_700-2    C    0.38840998    0.56475013    0.53587872    -0.00080000
opls_522-3    C    0.44878009    0.63104015    0.71916932    -0.14980000
opls_700-4    C    0.47083983    0.51429992    0.57006960    0.03770000
opls_523-5    C    0.48603989    0.45741001    0.57542901    -0.12020000
opls_700-6    C    0.37200005    0.52181003    0.45195131    -0.08380000
opls_470-7    C    0.67269011    0.50750996    0.35995097    0.61500000
opls_523-8    C    0.36479006    0.58506017    0.51446927    -0.15730000
opls_521-9    C    0.43103992    0.58876007    0.63521091    0.20020000
opls_523-10    C    0.42483986    0.65042996    0.70415058    -0.11080000
opls_521-11    C    0.44115999    0.53049995    0.56026093    0.20370000
opls_523-12    C    0.45729004    0.47137010    0.57873989    -0.11790000
opls_522-13    C    0.39916998    0.50550996    0.45835047    -0.20650000
opls_531-14    C    0.35198003    0.70891008    0.59364028    0.38120000
opls_700-15    C    0.37238001    0.75498013    0.60311082    0.00070000
opls_700-16    C    0.43524988    0.82365998    0.53587872    -0.00080000
opls_522-17    C    0.36896007    0.81774008    0.71916932    -0.14980000
opls_700-18    C    0.48569994    0.95654011    0.57006960    0.03770000
opls_523-19    C    0.54258994    0.02863006    0.57542901    -0.12020000
opls_700-20    C    0.47818992    0.85019001    0.45195131    -0.08380000
opls_470-21    C    0.49248997    0.16517986    0.35995097    0.61500000
opls_523-22    C    0.41494011    0.77973017    0.51446927    -0.15730000
opls_521-23    C    0.41124000    0.84228008    0.63521091    0.20020000
opls_523-24    C    0.34957013    0.77441014    0.70415058    -0.11080000
opls_521-25    C    0.46950006    0.91066016    0.56026093    0.20370000
opls_523-26    C    0.52862996    0.98591993    0.57873989    -0.11790000
opls_522-27    C    0.49449002    0.89366018    0.45835047    -0.20650000
opls_531-28    C    0.29109006    0.64307005    0.59364028    0.38120000
opls_700-29    C    0.24502016    0.61740010    0.60311082    0.00070000
opls_700-30    C    0.17633987    0.61158989    0.53587872    -0.00080000
opls_522-31    C    0.18225999    0.55122008    0.71916932    -0.14980000
opls_700-32    C    0.04345996    0.52915997    0.57006960    0.03770000
opls_523-33    C    0.97136989    0.51395993    0.57542901    -0.12020000
opls_700-34    C    0.14981003    0.62799996    0.45195131    -0.08380000
opls_470-35    C    0.83482003    0.32730987    0.35995097    0.61500000
opls_523-36    C    0.22026999    0.63520998    0.51446927    -0.15730000
opls_521-37    C    0.15771997    0.56896016    0.63521091    0.20020000
opls_523-38    C    0.22559001    0.57515990    0.70415058    -0.11080000
opls_521-39    C    0.08933995    0.55883989    0.56026093    0.20370000
opls_523-40    C    0.01408000    0.54270997    0.57873989    -0.11790000
opls_522-41    C    0.10634015    0.60083016    0.45835047    -0.20650000
opls_531-42    C    0.64307009    0.35198013    0.59364028    0.38120000
opls_700-43    C    0.61740001    0.37237991    0.60311082    0.00070000
opls_700-44    C    0.61159018    0.43525018    0.53587872    -0.00080000
opls_522-45    C    0.55122006    0.36896016    0.71916932    -0.14980000
opls_700-46    C    0.52916017    0.48570008    0.57006960    0.03770000
opls_523-47    C    0.51396011    0.54258999    0.57542901    -0.12020000
opls_700-48    C    0.62799995    0.47818997    0.45195131    -0.08380000
opls_470-49    C    0.32730989    0.49249004    0.35995097    0.61500000
opls_523-50    C    0.63521010    0.41494014    0.51446927    -0.15730000
opls_521-51    C    0.56896008    0.41123993    0.63521091    0.20020000
opls_523-52    C    0.57516014    0.34957004    0.70415058    -0.11080000
opls_521-53    C    0.55884001    0.46950005    0.56026093    0.20370000
opls_523-54    C    0.54270996    0.52862990    0.57873989    -0.11790000
opls_522-55    C    0.60083002    0.49449004    0.45835047    -0.20650000
opls_531-56    C    0.64801997    0.29108992    0.59364028    0.38120000
opls_700-57    C    0.62761999    0.24501987    0.60311082    0.00070000
opls_700-58    C    0.56475012    0.17634002    0.53587872    -0.00080000
opls_522-59    C    0.63103993    0.18225992    0.71916932    -0.14980000
opls_700-60    C    0.51430006    0.04345989    0.57006960    0.03770000
opls_523-61    C    0.45741006    0.97136994    0.57542901    -0.12020000
opls_700-62    C    0.52181008    0.14980999    0.45195131    -0.08380000
opls_470-63    C    0.50751003    0.83482014    0.35995097    0.61500000
opls_523-64    C    0.58506005    0.22027015    0.51446927    -0.15730000
opls_521-65    C    0.58876000    0.15771992    0.63521091    0.20020000
opls_523-66    C    0.65042987    0.22558986    0.70415058    -0.11080000
opls_521-67    C    0.53050010    0.08934015    0.56026093    0.20370000
opls_523-68    C    0.47137004    0.01408007    0.57873989    -0.11790000
opls_522-69    C    0.50551014    0.10634013    0.45835047    -0.20650000
opls_531-70    C    0.70890994    0.35692995    0.59364028    0.38120000
opls_700-71    C    0.75497984    0.38259990    0.60311082    0.00070000
opls_700-72    C    0.82366013    0.38841011    0.53587872    -0.00080000
opls_522-73    C    0.81774001    0.44877992    0.71916932    -0.14980000
opls_700-74    C    0.95654004    0.47084003    0.57006960    0.03770000
opls_523-75    C    0.02863011    0.48604007    0.57542901    -0.12020000
opls_700-76    C    0.85018997    0.37200004    0.45195131    -0.08380000
opls_470-77    C    0.16517997    0.67269013    0.35995097    0.61500000
opls_523-78    C    0.77973001    0.36479002    0.51446927    -0.15730000
opls_521-79    C    0.84228019    0.43104015    0.63521091    0.20020000
opls_523-80    C    0.77440999    0.42484010    0.70415058    -0.11080000
opls_521-81    C    0.91066005    0.44116011    0.56026093    0.20370000
opls_523-82    C    0.98592000    0.45729003    0.57873989    -0.11790000
opls_522-83    C    0.89366000    0.39917015    0.45835047    -0.20650000
opls_520-84    N    0.45547988    0.57115991    0.64521119    -0.26990000
opls_520-85    N    0.37532005    0.69011017    0.59409958    -0.42520000
opls_520-86    N    0.42884008    0.88431991    0.64521119    -0.26990000
opls_520-87    N    0.30989008    0.68520990    0.59409958    -0.42520000
opls_520-88    N    0.11567988    0.54451987    0.64521119    -0.26990000
opls_520-89    N    0.31478987    0.62467992    0.59409958    -0.42520000
opls_520-90    N    0.54452012    0.42884009    0.64521119    -0.27010000
opls_520-91    N    0.62468011    0.30989014    0.59409958    -0.42520000
opls_520-92    N    0.57115992    0.11568009    0.64521119    -0.26990000
opls_520-93    N    0.69010992    0.31479010    0.59409958    -0.42520000
opls_520-94    N    0.88432012    0.45548013    0.64521119    -0.26990000
opls_520-95    N    0.68521013    0.37532008    0.59409958    -0.42530000
opls_526-96    H    0.43918000    0.68325010    0.77473865    0.12400000
opls_526-97    H    0.47447995    0.42416014    0.57602919    0.12350000
opls_526-98    H    0.42462991    0.44817007    0.59260898    0.12800000
opls_526-99    H    0.33288998    0.56892993    0.41892981    0.12070000
opls_525-100    H    0.48134015    0.64880017    0.79744991    0.12730000
opls_525-101    H    0.38708987    0.47331992    0.38052072    0.13170000
opls_270-102    H    0.73229990    0.52517992    0.40947899    0.32550000
opls_526-103    H    0.31674984    0.75592995    0.77473865    0.12400000
opls_526-104    H    0.57584006    0.05031996    0.57602919    0.12350000
opls_526-105    H    0.55183000    0.97645999    0.59260898    0.12800000
opls_526-106    H    0.43107007    0.76396017    0.41892981    0.12070000
opls_525-107    H    0.35119999    0.83253999    0.79744991    0.12730000
opls_525-108    H    0.52668003    0.91377016    0.38052072    0.13170000
opls_270-109    H    0.47482008    0.20711996    0.40947899    0.32550000
opls_526-110    H    0.24406989    0.56081994    0.77473865    0.12400000
opls_526-111    H    0.94967999    0.52551990    0.57602919    0.12350000
opls_526-112    H    0.02354009    0.57536994    0.59260898    0.12800000
opls_526-113    H    0.23603994    0.66710990    0.41892981    0.12070000
opls_525-114    H    0.16746001    0.51866015    0.79744991    0.12730000
opls_525-115    H    0.08622983    0.61290992    0.38052072    0.13170000
opls_270-116    H    0.79288002    0.26770011    0.40947899    0.32540000
opls_526-117    H    0.56082000    0.31674990    0.77473865    0.12400000
opls_526-118    H    0.52552021    0.57584017    0.57602919    0.12350000
opls_526-119    H    0.57537009    0.55182993    0.59260898    0.12800000
opls_526-120    H    0.66711002    0.43107007    0.41892981    0.12070000
opls_525-121    H    0.51866000    0.35120014    0.79744991    0.12730000
opls_525-122    H    0.61291013    0.52668008    0.38052072    0.13170000
opls_270-123    H    0.26770010    0.47482008    0.40947899    0.32550000
opls_526-124    H    0.68325016    0.24407005    0.77473865    0.12400000
opls_526-125    H    0.42415994    0.94968004    0.57602919    0.12350000
opls_526-126    H    0.44817000    0.02354001    0.59260898    0.12800000
opls_526-127    H    0.56893009    0.23604014    0.41892981    0.12070000
opls_525-128    H    0.64880001    0.16746001    0.79744991    0.12730000
opls_525-129    H    0.47332013    0.08623016    0.38052072    0.13170000
opls_270-130    H    0.52517992    0.79288004    0.40947899    0.32550000
opls_526-131    H    0.75593011    0.43918006    0.77473865    0.12400000
opls_526-132    H    0.05032001    0.47448010    0.57602919    0.12350000
opls_526-133    H    0.97645991    0.42463006    0.59260898    0.12800000
opls_526-134    H    0.76396006    0.33289010    0.41892981    0.12070000
opls_525-135    H    0.83254014    0.48134017    0.79744991    0.12770000
opls_525-136    H    0.91377017    0.38709008    0.38052072    0.13170000
opls_270-137    H    0.20711998    0.73229989    0.40947899    0.32550000
opls_268-138    O    0.70440992    0.50115004    0.49132971    -0.46290000
opls_269-139    O    0.68207001    0.53883992    0.17704923    -0.41410000
opls_268-140    O    0.49884998    0.20325989    0.49132971    -0.46290000
opls_269-141    O    0.46116013    0.14323007    0.17704923    -0.41410000
opls_268-142    O    0.79674010    0.29559007    0.49132971    -0.46290000
opls_269-143    O    0.85677013    0.31793001    0.17704923    -0.41410000
opls_268-144    O    0.29559008    0.49884996    0.49132971    -0.46290000
opls_269-145    O    0.31792999    0.46116008    0.17704923    -0.41410000
opls_268-146    O    0.50115002    0.79674011    0.49132971    -0.46290000
opls_269-147    O    0.53883987    0.85676993    0.17704923    -0.41410000
opls_268-148    O    0.20325990    0.70440993    0.49132971    -0.46290000
opls_269-149    O    0.14322987    0.68206999    0.17704923    -0.41410000
