#======================================================================
# Crystal Data Generated By AuToFF
#----------------------------------------------------------------------

data_AuToFF_phase_1

_cell_length_a                         41.1020
_cell_length_b                         32.4036
_cell_length_c                         4.6700
_cell_angle_alpha                      90.00
_cell_angle_beta                       90.00
_cell_angle_gamma                      90.00
_symmetry_space_group_name_H-M_alt     'P 1'
_symmetry_space_group_IT_number        1

loop_
_space_group_symop_operation_xyz
   'x, y, z'

loop_
   _atom_site_label
   _atom_site_type_symbol
   _atom_site_fract_x
   _atom_site_fract_y
   _atom_site_fract_z
   _atom_site_charge
opls_145-0    C    0.36479003    0.36756996    0.69817987    -0.18160000
opls_145-1    C    0.63520997    0.63243004    0.69817987    -0.18160000
opls_145-2    C    0.63520997    0.36756996    0.30182013    -0.18160000
opls_145-3    C    0.36479003    0.63243004    0.30182013    -0.18150000
opls_145-4    C    0.13520997    0.13243004    0.30182013    -0.18160000
opls_145-5    C    0.86479003    0.86756996    0.30182013    -0.18160000
opls_145-6    C    0.86479003    0.13243004    0.69817987    -0.18160000
opls_145-7    C    0.13520997    0.86756996    0.69817987    -0.18160000
opls_145-8    C    0.39294000    0.39284987    0.71089079    -0.13470000
opls_145-9    C    0.60706000    0.60715013    0.71089079    -0.13470000
opls_145-10    C    0.60706000    0.39284987    0.28910921    -0.13470000
opls_145-11    C    0.39294000    0.60715013    0.28910921    -0.13470000
opls_145-12    C    0.10706000    0.10715013    0.28910921    -0.13470000
opls_145-13    C    0.89294000    0.89284987    0.28910921    -0.13460000
opls_145-14    C    0.89294000    0.10715013    0.71089079    -0.13470000
opls_145-15    C    0.10706000    0.89284987    0.71089079    -0.13470000
opls_145-16    C    0.87662012    0.84085997    0.83305996    -0.14210000
opls_145-17    C    0.12337988    0.15914003    0.83305996    -0.14220000
opls_145-18    C    0.12337988    0.84085997    0.16694004    -0.14220000
opls_145-19    C    0.87662012    0.15914003    0.16694004    -0.14220000
opls_145-20    C    0.62337988    0.65914003    0.16694004    -0.14220000
opls_145-21    C    0.37662012    0.34085997    0.16694004    -0.14220000
opls_145-22    C    0.37662012    0.65914003    0.83305996    -0.14220000
opls_145-23    C    0.62337988    0.34085997    0.83305996    -0.14220000
opls_145-24    C    0.90533989    0.86588990    0.82225910    -0.11920000
opls_145-25    C    0.09466011    0.13411010    0.82225910    -0.11920000
opls_145-26    C    0.09466011    0.86588990    0.17774090    -0.11920000
opls_145-27    C    0.90533989    0.13411010    0.17774090    -0.11920000
opls_145-28    C    0.59466011    0.63411010    0.17774090    -0.11920000
opls_145-29    C    0.40533989    0.36588990    0.17774090    -0.11920000
opls_145-30    C    0.40533989    0.63411010    0.82225910    -0.11920000
opls_145-31    C    0.59466011    0.36588990    0.82225910    -0.11920000
opls_142-32    C    0.18862999    0.20688998    0.90400000    0.01330000
opls_142-33    C    0.81137001    0.79311002    0.90400000    0.01330000
opls_142-34    C    0.81137001    0.20688998    0.09600000    0.01330000
opls_142-35    C    0.18862999    0.79311002    0.09600000    0.01330000
opls_142-36    C    0.31137001    0.29311002    0.09600000    0.01330000
opls_142-37    C    0.68862999    0.70688998    0.09600000    0.01330000
opls_142-38    C    0.68862999    0.29311002    0.90400000    0.01330000
opls_142-39    C    0.31137001    0.70688998    0.90400000    0.01330000
opls_700-40    C    0.21920004    0.22804009    0.95686938    0.06550000
opls_700-41    C    0.78079996    0.77195991    0.95686938    0.06550000
opls_700-42    C    0.78079996    0.22804009    0.04313062    0.06550000
opls_700-43    C    0.21920004    0.77195991    0.04313062    0.06550000
opls_700-44    C    0.28079996    0.27195991    0.04313062    0.06550000
opls_700-45    C    0.71920004    0.72804009    0.04313062    0.06550000
opls_700-46    C    0.71920004    0.27195991    0.95686938    0.06550000
opls_700-47    C    0.28079996    0.72804009    0.95686938    0.06550000
opls_145-48    C    0.23675004    0.22510986    0.21644968    -0.09770000
opls_145-49    C    0.76324996    0.77489014    0.21644968    -0.09770000
opls_145-50    C    0.76324996    0.22510986    0.78355032    -0.09770000
opls_145-51    C    0.23675004    0.77489014    0.78355032    -0.09770000
opls_145-52    C    0.26324996    0.27489014    0.78355032    -0.09770000
opls_145-53    C    0.73675004    0.72510986    0.78355032    -0.09770000
opls_145-54    C    0.73675004    0.27489014    0.21644968    -0.09770000
opls_145-55    C    0.26324996    0.72510986    0.21644968    -0.09770000
opls_145-56    C    0.23330008    0.25349992    0.74202998    -0.11720000
opls_145-57    C    0.76669992    0.74650008    0.74202998    -0.11720000
opls_145-58    C    0.76669992    0.25349992    0.25797002    -0.11720000
opls_145-59    C    0.23330008    0.74650008    0.25797002    -0.11720000
opls_145-60    C    0.26669992    0.24650008    0.25797002    -0.11720000
opls_145-61    C    0.73330008    0.75349992    0.25797002    -0.11720000
opls_145-62    C    0.73330008    0.24650008    0.74202998    -0.11720000
opls_145-63    C    0.26669992    0.75349992    0.74202998    -0.11720000
opls_543-64    C    0.47324996    0.41255015    0.99432976    0.19410000
opls_543-65    C    0.52675004    0.58744985    0.99432976    0.19410000
opls_543-66    C    0.52675004    0.41255015    0.00567024    0.19410000
opls_543-67    C    0.47324996    0.58744985    0.00567024    0.19410000
opls_543-68    C    0.02675004    0.08744985    0.00567024    0.19410000
opls_543-69    C    0.97324996    0.91255015    0.00567024    0.19410000
opls_543-70    C    0.97324996    0.08744985    0.99432976    0.19410000
opls_543-71    C    0.02675004    0.91255015    0.99432976    0.19410000
opls_700-72    C    0.41389008    0.39321001    0.95186081    0.06720000
opls_700-73    C    0.58610992    0.60678999    0.95186081    0.06720000
opls_700-74    C    0.58610992    0.39321001    0.04813919    0.06720000
opls_700-75    C    0.41389008    0.60678999    0.04813919    0.06720000
opls_700-76    C    0.08610992    0.10678999    0.04813919    0.06720000
opls_700-77    C    0.91389008    0.89321001    0.04813919    0.06720000
opls_700-78    C    0.91389008    0.10678999    0.95186081    0.06720000
opls_700-79    C    0.08610992    0.89321001    0.95186081    0.06720000
opls_700-80    C    0.43990000    0.42410010    0.97743897    -0.07720000
opls_700-81    C    0.56010000    0.57589990    0.97743897    -0.07720000
opls_700-82    C    0.56010000    0.42410010    0.02256103    -0.07720000
opls_700-83    C    0.43990000    0.57589990    0.02256103    -0.07720000
opls_700-84    C    0.06010000    0.07589990    0.02256103    -0.07720000
opls_700-85    C    0.93990000    0.92410010    0.02256103    -0.07720000
opls_700-86    C    0.93990000    0.07589990    0.97743897    -0.07720000
opls_700-87    C    0.06010000    0.92410010    0.97743897    -0.07720000
opls_145-88    C    0.35541993    0.34159013    0.92640043    0.19130000
opls_145-89    C    0.64458007    0.65840987    0.92640043    0.19130000
opls_145-90    C    0.64458007    0.34159013    0.07359957    0.19130000
opls_145-91    C    0.35541993    0.65840987    0.07359957    0.19130000
opls_145-92    C    0.14458007    0.15840987    0.07359957    0.19130000
opls_145-93    C    0.85541993    0.84159013    0.07359957    0.19130000
opls_145-94    C    0.85541993    0.15840987    0.92640043    0.19130000
opls_145-95    C    0.14458007    0.84159013    0.92640043    0.19130000
opls_543-96    C    0.43125006    0.46637997    0.98434047    0.20200000
opls_543-97    C    0.56874994    0.53362003    0.98434047    0.20210000
opls_543-98    C    0.56874994    0.46637997    0.01565953    0.20200000
opls_543-99    C    0.43125006    0.53362003    0.01565953    0.20200000
opls_543-100    C    0.06874994    0.03362003    0.01565953    0.20200000
opls_543-101    C    0.93125006    0.96637997    0.01565953    0.20200000
opls_543-102    C    0.93125006    0.03362003    0.98434047    0.20200000
opls_543-103    C    0.06874994    0.96637997    0.98434047    0.20210000
opls_716-104    C    0.48296993    0.37167012    0.99492077    -0.16460000
opls_716-105    C    0.51703007    0.62832988    0.99492077    -0.16450000
opls_716-106    C    0.51703007    0.37167012    0.00507923    -0.16460000
opls_716-107    C    0.48296993    0.62832988    0.00507923    -0.16460000
opls_716-108    C    0.01703007    0.12832988    0.00507923    -0.16460000
opls_716-109    C    0.98296993    0.87167012    0.00507923    -0.16460000
opls_716-110    C    0.98296993    0.12832988    0.99492077    -0.16450000
opls_716-111    C    0.01703007    0.87167012    0.99492077    -0.16460000
opls_716-112    C    0.39899007    0.47868015    0.99259101    -0.17660000
opls_716-113    C    0.60100993    0.52131985    0.99259101    -0.17660000
opls_716-114    C    0.60100993    0.47868015    0.00740899    -0.17660000
opls_716-115    C    0.39899007    0.52131985    0.00740899    -0.17660000
opls_716-116    C    0.10100993    0.02131985    0.00740899    -0.17660000
opls_716-117    C    0.89899007    0.97868015    0.00740899    -0.17660000
opls_716-118    C    0.89899007    0.02131985    0.99259101    -0.17660000
opls_716-119    C    0.10100993    0.97868015    0.99259101    -0.17660000
opls_146-120    H    0.34963992    0.36912010    0.50871949    0.10950000
opls_146-121    H    0.65036008    0.63087990    0.50871949    0.10950000
opls_146-122    H    0.65036008    0.36912010    0.49128051    0.10950000
opls_146-123    H    0.34963992    0.63087990    0.49128051    0.10960000
opls_146-124    H    0.15036008    0.13087990    0.49128051    0.10950000
opls_146-125    H    0.84963992    0.86912010    0.49128051    0.10950000
opls_146-126    H    0.84963992    0.13087990    0.50871949    0.10950000
opls_146-127    H    0.15036008    0.86912010    0.50871949    0.10960000
opls_146-128    H    0.39807990    0.41305997    0.53168094    0.11140000
opls_146-129    H    0.60192010    0.58694003    0.53168094    0.11130000
opls_146-130    H    0.60192010    0.41305997    0.46831906    0.11130000
opls_146-131    H    0.39807990    0.58694003    0.46831906    0.11130000
opls_146-132    H    0.10192010    0.08694003    0.46831906    0.11130000
opls_146-133    H    0.89807990    0.91305997    0.46831906    0.11140000
opls_146-134    H    0.89807990    0.08694003    0.53168094    0.11130000
opls_146-135    H    0.10192010    0.91305997    0.53168094    0.11130000
opls_146-136    H    0.87111990    0.82157013    0.65059957    0.11320000
opls_146-137    H    0.12888010    0.17842987    0.65059957    0.11320000
opls_146-138    H    0.12888010    0.82157013    0.34940043    0.11320000
opls_146-139    H    0.87111990    0.17842987    0.34940043    0.11320000
opls_146-140    H    0.62888010    0.67842987    0.34940043    0.11320000
opls_146-141    H    0.37111990    0.32157013    0.34940043    0.11320000
opls_146-142    H    0.37111990    0.67842987    0.65059957    0.11330000
opls_146-143    H    0.62888010    0.32157013    0.65059957    0.11320000
opls_146-144    H    0.92007007    0.86523010    0.63008994    0.11220000
opls_146-145    H    0.07992993    0.13476990    0.63008994    0.11220000
opls_146-146    H    0.07992993    0.86523010    0.36991006    0.11220000
opls_146-147    H    0.92007007    0.13476990    0.36991006    0.11220000
opls_146-148    H    0.57992993    0.63476990    0.36991006    0.11220000
opls_146-149    H    0.42007007    0.36523010    0.36991006    0.11220000
opls_146-150    H    0.42007007    0.63476990    0.63008994    0.11220000
opls_146-151    H    0.57992993    0.36523010    0.63008994    0.11220000
opls_144-152    H    0.17732008    0.21171999    0.69749036    0.08570000
opls_144-153    H    0.82267992    0.78828001    0.69749036    0.08570000
opls_144-154    H    0.82267992    0.21171999    0.30250964    0.08570000
opls_144-155    H    0.17732008    0.78828001    0.30250964    0.08580000
opls_144-156    H    0.32267992    0.28828001    0.30250964    0.08570000
opls_144-157    H    0.67732008    0.71171999    0.30250964    0.08570000
opls_144-158    H    0.67732008    0.28828001    0.69749036    0.08570000
opls_144-159    H    0.32267992    0.71171999    0.69749036    0.08570000
opls_146-160    H    0.22737993    0.20629004    0.38947966    0.10950000
opls_146-161    H    0.77262007    0.79370996    0.38947966    0.10950000
opls_146-162    H    0.77262007    0.20629004    0.61052034    0.10950000
opls_146-163    H    0.22737993    0.79370996    0.61052034    0.10950000
opls_146-164    H    0.27262007    0.29370996    0.61052034    0.10950000
opls_146-165    H    0.72737993    0.70629004    0.61052034    0.10950000
opls_146-166    H    0.72737993    0.29370996    0.38947966    0.10950000
opls_146-167    H    0.27262007    0.70629004    0.38947966    0.10950000
opls_146-168    H    0.22108000    0.25695015    0.53786938    0.11050000
opls_146-169    H    0.77892000    0.74304985    0.53786938    0.11050000
opls_146-170    H    0.77892000    0.25695015    0.46213062    0.11050000
opls_146-171    H    0.22108000    0.74304985    0.46213062    0.11050000
opls_146-172    H    0.27892000    0.24304985    0.46213062    0.11050000
opls_146-173    H    0.72108000    0.75695015    0.46213062    0.11050000
opls_146-174    H    0.72108000    0.24304985    0.53786938    0.11050000
opls_146-175    H    0.27892000    0.75695015    0.53786938    0.11060000
opls_547-176    H    0.46774001    0.34447006    0.98716060    0.11680000
opls_547-177    H    0.53225999    0.65552994    0.98716060    0.11680000
opls_547-178    H    0.53225999    0.34447006    0.01283940    0.11680000
opls_547-179    H    0.46774001    0.65552994    0.01283940    0.11680000
opls_547-180    H    0.03225999    0.15552994    0.01283940    0.11680000
opls_547-181    H    0.96774001    0.84447006    0.01283940    0.11680000
opls_547-182    H    0.96774001    0.15552994    0.98716060    0.11680000
opls_547-183    H    0.03225999    0.84447006    0.98716060    0.11680000
opls_547-184    H    0.62280011    0.54003012    0.99128051    0.11760000
opls_547-185    H    0.37719989    0.45996988    0.99128051    0.11760000
opls_547-186    H    0.37719989    0.54003012    0.00871949    0.11760000
opls_547-187    H    0.62280011    0.45996988    0.00871949    0.11760000
opls_547-188    H    0.87719989    0.95996988    0.00871949    0.11760000
opls_547-189    H    0.12280011    0.04003012    0.00871949    0.11760000
opls_547-190    H    0.12280011    0.95996988    0.99128051    0.11760000
opls_547-191    H    0.87719989    0.04003012    0.99128051    0.11770000
opls_750-192    N    0.17350007    0.18077991    0.09668951    -0.26500000
opls_750-193    N    0.82649993    0.81922009    0.09668951    -0.26500000
opls_750-194    N    0.82649993    0.18077991    0.90331049    -0.26500000
opls_750-195    N    0.17350007    0.81922009    0.90331049    -0.26510000
opls_750-196    N    0.32649993    0.31922009    0.90331049    -0.26510000
opls_750-197    N    0.67350007    0.68077991    0.90331049    -0.26500000
opls_750-198    N    0.67350007    0.31922009    0.09668951    -0.26510000
opls_750-199    N    0.32649993    0.68077991    0.09668951    -0.26510000
opls_542-200    N    0.45170989    0.50000000    0.00000000    -0.40200000
opls_542-201    N    0.54829011    0.50000000    0.00000000    -0.40190000
opls_542-202    N    0.04829011    0.00000000    0.00000000    -0.40200000
opls_542-203    N    0.95170989    0.00000000    0.00000000    -0.40190000
opls_542-204    N    0.50000000    0.56156014    0.00000000    -0.40240000
opls_542-205    N    0.50000000    0.43843986    0.00000000    -0.40230000
opls_542-206    N    0.00000000    0.93843986    0.00000000    -0.40240000
opls_542-207    N    0.00000000    0.06156014    0.00000000    -0.40240000
F2_Co4+2-208    Co    0.50000000    0.50000000    0.00000000    0.63340000
F2_Co4+2-209    Co    0.00000000    0.00000000    0.00000000    0.63320000
