#======================================================================
# Crystal Data Generated By AuToFF
#----------------------------------------------------------------------

data_AuToFF_phase_1

_cell_length_a                         21.2500
_cell_length_b                         21.2500
_cell_length_c                         4.6250
_cell_angle_alpha                      90.00
_cell_angle_beta                       90.00
_cell_angle_gamma                      120.00
_symmetry_space_group_name_H-M_alt     'P 1'
_symmetry_space_group_IT_number        1

loop_
_space_group_symop_operation_xyz
   'x, y, z'

loop_
   _atom_site_label
   _atom_site_type_symbol
   _atom_site_fract_x
   _atom_site_fract_y
   _atom_site_fract_z
   _atom_site_charge
F2_O_3_z-0    O    0.32900984    0.59527991    0.78910054    -0.74100000
F2_O_3_z-1    O    0.40471999    0.73372986    0.78910054    -0.74100000
F2_O_3_z-2    O    0.26627017    0.67099023    0.78910054    -0.74100000
F2_O_3_z-3    O    0.40472006    0.67099023    0.21089946    -0.74100000
F2_O_3_z-4    O    0.26627007    0.59527991    0.21089946    -0.74100000
F2_O_3_z-5    O    0.32900987    0.73372986    0.21089946    -0.74100000
F2_O_3_z-6    O    0.67099016    0.40472009    0.21089946    -0.74100000
F2_O_3_z-7    O    0.59528001    0.26627014    0.21089946    -0.74100000
F2_O_3_z-8    O    0.73372983    0.32900977    0.21089946    -0.74100000
F2_O_3_z-9    O    0.59527994    0.32900977    0.78910054    -0.74100000
F2_O_3_z-10    O    0.73372993    0.40472009    0.78910054    -0.74100000
F2_O_3_z-11    O    0.67099013    0.26627014    0.78910054    -0.74100000
opls_145-12    C    0.37677997    0.57475993    0.89153946    0.24820000
opls_145-13    C    0.42524022    0.80202021    0.89153946    0.24820000
opls_145-14    C    0.19797981    0.62321986    0.89153946    0.24820000
opls_145-15    C    0.42524005    0.62321986    0.10846054    0.24820000
opls_145-16    C    0.19797997    0.57475993    0.10846054    0.24820000
opls_145-17    C    0.37677999    0.80202021    0.10846054    0.24820000
opls_145-18    C    0.62322003    0.42524007    0.10846054    0.24820000
opls_145-19    C    0.57475978    0.19797979    0.10846054    0.24820000
opls_145-20    C    0.80202019    0.37678014    0.10846054    0.24820000
opls_145-21    C    0.57475995    0.37678014    0.89153946    0.24830000
opls_145-22    C    0.80202003    0.42524007    0.89153946    0.24820000
opls_145-23    C    0.62322001    0.19797979    0.89153946    0.24820000
opls_145-24    C    0.38593013    0.51965980    0.79049081    -0.25800000
opls_145-25    C    0.48034014    0.86626992    0.79049081    -0.25800000
opls_145-26    C    0.13372993    0.61406974    0.79049081    -0.25790000
opls_145-27    C    0.48033981    0.61406974    0.20950919    -0.25790000
opls_145-28    C    0.13372966    0.51965980    0.20950919    -0.25800000
opls_145-29    C    0.38592978    0.86626992    0.20950919    -0.25800000
opls_145-30    C    0.61407034    0.48034020    0.20950919    -0.25800000
opls_145-31    C    0.51965986    0.13373008    0.20950919    -0.25800000
opls_145-32    C    0.86627007    0.38593026    0.20950919    -0.25800000
opls_145-33    C    0.51966019    0.38593026    0.79049081    -0.25800000
opls_145-34    C    0.86626987    0.48034020    0.79049081    -0.25800000
opls_145-35    C    0.61407022    0.13373008    0.79049081    -0.25800000
opls_700-36    C    0.44318010    0.50813996    0.89206054    -0.00350000
opls_700-37    C    0.49186028    0.93504008    0.89206054    -0.00350000
opls_700-38    C    0.06496010    0.55681996    0.89206054    -0.00350000
opls_700-39    C    0.49185986    0.55681996    0.10793946    -0.00350000
opls_700-40    C    0.06495986    0.50813996    0.10793946    -0.00350000
opls_700-41    C    0.44317980    0.93504008    0.10793946    -0.00350000
opls_700-42    C    0.55681990    0.49186004    0.10793946    -0.00350000
opls_700-43    C    0.50814020    0.06495992    0.10793946    -0.00350000
opls_700-44    C    0.93503990    0.44318004    0.10793946    -0.00350000
opls_700-45    C    0.50814014    0.44318004    0.89206054    -0.00350000
opls_700-46    C    0.93504014    0.49186004    0.89206054    -0.00350000
opls_700-47    C    0.55681972    0.06495992    0.89206054    -0.00350000
opls_700-48    C    0.45184001    0.45184002    0.78454054    0.05540000
opls_700-49    C    0.54816000    1.00000000    0.78454054    0.05540000
opls_700-50    C    0.99999999    0.54815998    0.78454054    0.05540000
opls_700-51    C    0.54815999    0.54815998    0.21545946    0.05540000
opls_700-52    C    0.00000001    0.45184002    0.21545946    0.05540000
opls_700-53    C    0.45184000    1.00000000    0.21545946    0.05540000
opls_148-54    C    0.40153997    0.40154018    0.55403027    -0.44720000
opls_148-55    C    0.59846024    0.00000000    0.55403027    -0.44710000
opls_148-56    C    0.99999979    0.59845982    0.55403027    -0.44730000
opls_148-57    C    0.59846003    0.59845982    0.44596973    -0.44720000
opls_148-58    C    0.00000021    0.40154018    0.44596973    -0.44730000
opls_148-59    C    0.40153976    0.00000000    0.44596973    -0.44720000
opls_146-60    H    0.35337021    0.48781995    0.64804973    0.19740000
opls_146-61    H    0.51218014    0.86554993    0.64804973    0.19740000
opls_146-62    H    0.13445012    0.64663012    0.64804973    0.19740000
opls_146-63    H    0.51218000    0.64663012    0.35195027    0.19740000
opls_146-64    H    0.13444974    0.48781995    0.35195027    0.19750000
opls_146-65    H    0.35336979    0.86554993    0.35195027    0.19740000
opls_146-66    H    0.64663026    0.51218005    0.35195027    0.19740000
opls_146-67    H    0.48781986    0.13445007    0.35195027    0.19740000
opls_146-68    H    0.86554988    0.35336988    0.35195027    0.19740000
opls_146-69    H    0.48782000    0.35336988    0.64804973    0.19740000
opls_146-70    H    0.86554979    0.51218005    0.64804973    0.19740000
opls_146-71    H    0.64663021    0.13445007    0.64804973    0.19740000
opls_702-72    H    0.42855974    0.39107995    0.41572973    0.13070000
opls_702-73    H    0.60892035    0.03748022    0.41572973    0.13070000
opls_702-74    H    0.96251991    0.57143983    0.41572973    0.13070000
opls_702-75    H    0.60891991    0.57143983    0.58427027    0.13070000
opls_702-76    H    0.96251974    0.39107995    0.58427027    0.13080000
opls_702-77    H    0.42855988    0.03748022    0.58427027    0.13070000
opls_702-78    H    0.57144026    0.60892005    0.58427027    0.13070000
opls_702-79    H    0.39107965    0.96251978    0.58427027    0.13070000
opls_702-80    H    0.03748009    0.42856017    0.58427027    0.13070000
opls_702-81    H    0.39108009    0.42856017    0.41572973    0.13070000
opls_702-82    H    0.03748026    0.60892005    0.41572973    0.13070000
opls_702-83    H    0.57144012    0.96251978    0.41572973    0.13070000
opls_702-84    H    0.36076981    0.36076974    0.64244973    0.13070000
opls_702-85    H    0.63923012    0.00000000    0.64244973    0.13070000
opls_702-86    H    0.00000007    0.63923026    0.64244973    0.13070000
opls_702-87    H    0.63923019    0.63923026    0.35755027    0.13070000
opls_702-88    H    0.99999993    0.36076974    0.35755027    0.13070000
opls_702-89    H    0.36076988    0.00000000    0.35755027    0.13070000
opls_404-90    Li    0.46142995    0.73071025    0.50000000    0.78270000
opls_404-91    Li    0.26928030    0.73071025    0.50000000    0.78260000
opls_404-92    Li    0.26927995    0.53857026    0.50000000    0.78260000
opls_404-93    Li    0.53856987    0.26927997    0.50000000    0.78260000
opls_404-94    Li    0.73071010    0.26927997    0.50000000    0.78270000
opls_404-95    Li    0.73070969    0.46142974    0.50000000    0.78270000
MOF2_Si3-96    Si    0.33332970    0.66666975    0.00000000    0.99240000
MOF2_Si3-97    Si    0.66667030    0.33333025    0.00000000    0.99230000
