#======================================================================
# Crystal Data Generated By AuToFF
#----------------------------------------------------------------------

data_AuToFF_phase_1

_cell_length_a                         45.4367
_cell_length_b                         45.4367
_cell_length_c                         3.4519
_cell_angle_alpha                      90.00
_cell_angle_beta                       90.00
_cell_angle_gamma                      120.00
_symmetry_space_group_name_H-M_alt     'P 1'
_symmetry_space_group_IT_number        1

loop_
_space_group_symop_operation_xyz
   'x, y, z'

loop_
   _atom_site_label
   _atom_site_type_symbol
   _atom_site_fract_x
   _atom_site_fract_y
   _atom_site_fract_z
   _atom_site_charge
opls_641-0    N    0.30933994    0.67711987    0.00000000    -0.39970000
opls_750-1    N    0.46064999    0.53297997    0.00000000    -0.33550000
opls_641-2    N    0.32288008    0.63222001    0.00000000    -0.39970000
opls_750-3    N    0.46702006    0.92766994    0.00000000    -0.33550000
opls_641-4    N    0.36777985    0.69065987    0.00000000    -0.39970000
opls_750-5    N    0.07232982    0.53934983    0.00000000    -0.33550000
opls_641-6    N    0.69065993    0.32287988    0.00000000    -0.39970000
opls_750-7    N    0.53935001    0.46702003    0.00000000    -0.33550000
opls_641-8    N    0.67711992    0.36777999    0.00000000    -0.39970000
opls_750-9    N    0.53297994    0.07233006    0.00000000    -0.33550000
opls_641-10    N    0.63222002    0.30933988    0.00000000    -0.39970000
opls_750-11    N    0.92767005    0.46064991    0.00000000    -0.33550000
opls_642-12    C    0.34270989    0.70104988    0.00000000    0.33070000
opls_142-13    C    0.26469000    0.61676003    0.00000000    -0.19070000
opls_142-14    C    0.23868996    0.62475991    0.00000000    -0.09660000
opls_700-15    C    0.40065983    0.60246983    0.00000000    0.11100000
opls_145-16    C    0.43600995    0.62507986    0.00000000    -0.12510000
opls_145-17    C    0.45867996    0.61272997    0.00000000    -0.11670000
opls_700-18    C    0.44665003    0.57768999    0.00000000    0.06200000
opls_145-19    C    0.41143999    0.55507005    0.00000000    -0.11800000
opls_145-20    C    0.38875991    0.56736987    0.00000000    -0.12310000
opls_142-21    C    0.47116988    0.56535993    0.00000000    0.07120000
opls_145-22    C    0.48120994    0.51708999    0.00000000    0.19540000
opls_145-23    C    0.51700006    0.53552995    0.00000000    -0.16580000
opls_145-24    C    0.53542985    0.51844986    0.00000000    -0.16680000
opls_642-25    C    0.29894992    0.64166006    0.00000000    0.33070000
opls_142-26    C    0.38324002    0.64793005    0.00000000    -0.19070000
opls_142-27    C    0.37523998    0.61392999    0.00000000    -0.09660000
opls_700-28    C    0.39752997    0.79819001    0.00000000    0.11100000
opls_145-29    C    0.37492008    0.81092999    0.00000000    -0.12510000
opls_145-30    C    0.38726989    0.84594989    0.00000000    -0.11670000
opls_700-31    C    0.42231007    0.86895994    0.00000000    0.06200000
opls_145-32    C    0.44493000    0.85636989    0.00000000    -0.11800000
opls_145-33    C    0.43262986    0.82138989    0.00000000    -0.12310000
opls_142-34    C    0.43463996    0.90580986    0.00000000    0.07120000
opls_145-35    C    0.48290990    0.96411986    0.00000000    0.19540000
opls_145-36    C    0.46447002    0.98146983    0.00000000    -0.16580000
opls_145-37    C    0.48155008    0.01697995    0.00000000    -0.16680000
opls_642-38    C    0.35833997    0.65729006    0.00000000    0.33070000
opls_142-39    C    0.35206998    0.73530992    0.00000000    -0.19070000
opls_142-40    C    0.38606993    0.76130985    0.00000000    -0.09660000
opls_700-41    C    0.20180986    0.59933991    0.00000000    0.11100000
opls_145-42    C    0.18906984    0.56398989    0.00000000    -0.12510000
opls_145-43    C    0.15405002    0.54131988    0.00000000    -0.11670000
opls_700-44    C    0.13104012    0.55335007    0.00000000    0.06200000
opls_145-45    C    0.14363001    0.58856006    0.00000000    -0.11800000
opls_145-46    C    0.17860989    0.61123999    0.00000000    -0.12300000
opls_142-47    C    0.09419003    0.52882996    0.00000000    0.07120000
opls_145-48    C    0.03588004    0.51878990    0.00000000    0.19550000
opls_145-49    C    0.01853001    0.48299997    0.00000000    -0.16580000
opls_145-50    C    0.98301994    0.46456993    0.00000000    -0.16680000
opls_642-51    C    0.65728998    0.29894987    0.00000000    0.33070000
opls_142-52    C    0.73531000    0.38323997    0.00000000    -0.19070000
opls_142-53    C    0.76131004    0.37524009    0.00000000    -0.09660000
opls_700-54    C    0.59934005    0.39752992    0.00000000    0.11100000
opls_145-55    C    0.56398993    0.37491988    0.00000000    -0.12510000
opls_145-56    C    0.54132004    0.38727003    0.00000000    -0.11670000
opls_700-57    C    0.55334997    0.42231001    0.00000000    0.06200000
opls_145-58    C    0.58856001    0.44492995    0.00000000    -0.11800000
opls_145-59    C    0.61123996    0.43262987    0.00000000    -0.12310000
opls_142-60    C    0.52883012    0.43464007    0.00000000    0.07120000
opls_145-61    C    0.51879006    0.48291001    0.00000000    0.19540000
opls_145-62    C    0.48299994    0.46447005    0.00000000    -0.16580000
opls_145-63    C    0.46457002    0.48154988    0.00000000    -0.16680000
opls_642-64    C    0.70105008    0.35833994    0.00000000    0.33090000
opls_142-65    C    0.61675998    0.35206995    0.00000000    -0.19070000
opls_142-66    C    0.62476002    0.38607001    0.00000000    -0.09660000
opls_700-67    C    0.60247003    0.20180999    0.00000000    0.11100000
opls_145-68    C    0.62507992    0.18907001    0.00000000    -0.12510000
opls_145-69    C    0.61273011    0.15405011    0.00000000    -0.11670000
opls_700-70    C    0.57768993    0.13104006    0.00000000    0.06200000
opls_145-71    C    0.55507000    0.14363011    0.00000000    -0.11800000
opls_145-72    C    0.56737002    0.17860986    0.00000000    -0.12310000
opls_142-73    C    0.56535992    0.09418989    0.00000000    0.07120000
opls_145-74    C    0.51708997    0.03587989    0.00000000    0.19550000
opls_145-75    C    0.53552985    0.01852992    0.00000000    -0.16580000
opls_145-76    C    0.51844979    0.98301979    0.00000000    -0.16680000
opls_642-77    C    0.64166003    0.34270994    0.00000000    0.33070000
opls_142-78    C    0.64793002    0.26469008    0.00000000    -0.19060000
opls_142-79    C    0.61392994    0.23868990    0.00000000    -0.09660000
opls_700-80    C    0.79819014    0.40066009    0.00000000    0.11100000
opls_145-81    C    0.81093003    0.43600985    0.00000000    -0.12510000
opls_145-82    C    0.84594985    0.45867987    0.00000000    -0.11670000
opls_700-83    C    0.86895988    0.44664993    0.00000000    0.06200000
opls_145-84    C    0.85636999    0.41143994    0.00000000    -0.11800000
opls_145-85    C    0.82139011    0.38876001    0.00000000    -0.12310000
opls_142-86    C    0.90580997    0.47117004    0.00000000    0.07120000
opls_145-87    C    0.96411984    0.48120985    0.00000000    0.19540000
opls_145-88    C    0.98146999    0.51700003    0.00000000    -0.16580000
opls_145-89    C    0.01698006    0.53543007    0.00000000    -0.16680000
opls_144-90    H    0.25877985    0.59060991    0.00000000    0.12490000
opls_144-91    H    0.24559989    0.65129987    0.00000000    0.12010000
opls_146-92    H    0.44663996    0.65226990    0.00000000    0.11300000
opls_146-93    H    0.48572996    0.63064997    0.00000000    0.11890000
opls_146-94    H    0.40136997    0.52785993    0.00000000    0.11730000
opls_146-95    H    0.36174005    0.54932001    0.00000000    0.11890000
opls_144-96    H    0.49793003    0.58395999    0.00000000    0.11730000
opls_146-97    H    0.53111998    0.56294006    0.00000000    0.12070000
opls_146-98    H    0.56292989    0.53300996    0.00000000    0.11730000
opls_144-99    H    0.40939000    0.66817004    0.00000000    0.12480000
opls_144-100    H    0.34869992    0.59429993    0.00000000    0.12010000
opls_146-101    H    0.34772998    0.79436987    0.00000000    0.11300000
opls_146-102    H    0.36934999    0.85507991    0.00000000    0.11890000
opls_146-103    H    0.47214003    0.87350995    0.00000000    0.11730000
opls_146-104    H    0.45067999    0.81241998    0.00000000    0.11890000
opls_144-105    H    0.41603983    0.91396984    0.00000000    0.11730000
opls_146-106    H    0.43705991    0.96817990    0.00000000    0.12070000
opls_146-107    H    0.46698994    0.02991994    0.00000000    0.11730000
opls_144-108    H    0.33182992    0.74122006    0.00000000    0.12480000
opls_144-109    H    0.40570006    0.75439995    0.00000000    0.12010000
opls_146-110    H    0.20562994    0.55335998    0.00000000    0.11300000
opls_146-111    H    0.14491992    0.51426987    0.00000000    0.11890000
opls_146-112    H    0.12648988    0.59862986    0.00000000    0.11730000
opls_146-113    H    0.18757996    0.63826001    0.00000000    0.11890000
opls_144-114    H    0.08603002    0.50206992    0.00000000    0.11730000
opls_146-115    H    0.03182011    0.46888004    0.00000000    0.12070000
opls_146-116    H    0.97007982    0.43706985    0.00000000    0.11730000
opls_144-117    H    0.74122002    0.40938984    0.00000000    0.12480000
opls_144-118    H    0.75439999    0.34869988    0.00000000    0.12010000
opls_146-119    H    0.55335991    0.34772985    0.00000000    0.11300000
opls_146-120    H    0.51427004    0.36935003    0.00000000    0.11890000
opls_146-121    H    0.59863003    0.47214007    0.00000000    0.11730000
opls_146-122    H    0.63825995    0.45067999    0.00000000    0.11890000
opls_144-123    H    0.50206997    0.41604001    0.00000000    0.11740000
opls_146-124    H    0.46888002    0.43705994    0.00000000    0.12070000
opls_146-125    H    0.43707011    0.46699004    0.00000000    0.11730000
opls_144-126    H    0.59061000    0.33182996    0.00000000    0.12480000
opls_144-127    H    0.65130008    0.40570007    0.00000000    0.12010000
opls_146-128    H    0.65226990    0.20562988    0.00000000    0.11300000
opls_146-129    H    0.63065001    0.14492009    0.00000000    0.11890000
opls_146-130    H    0.52785997    0.12649005    0.00000000    0.11730000
opls_146-131    H    0.54932001    0.18758002    0.00000000    0.11450000
opls_144-132    H    0.58396005    0.08602991    0.00000000    0.11730000
opls_146-133    H    0.56294009    0.03182010    0.00000000    0.12070000
opls_146-134    H    0.53300993    0.97007980    0.00000000    0.11730000
opls_144-135    H    0.66817008    0.25877994    0.00000000    0.12480000
opls_144-136    H    0.59429994    0.24560005    0.00000000    0.12010000
opls_146-137    H    0.79437006    0.44664002    0.00000000    0.11300000
opls_146-138    H    0.85507995    0.48572988    0.00000000    0.11890000
opls_146-139    H    0.87350999    0.40136988    0.00000000    0.11730000
opls_146-140    H    0.81242004    0.36173999    0.00000000    0.11890000
opls_144-141    H    0.91396998    0.49793008    0.00000000    0.11730000
opls_146-142    H    0.96817989    0.53111996    0.00000000    0.12070000
opls_146-143    H    0.02992005    0.56292990    0.00000000    0.11730000
