#======================================================================
# Crystal Data Generated By AuToFF
#----------------------------------------------------------------------

data_AuToFF_phase_1

_cell_length_a                         50.3000
_cell_length_b                         50.3000
_cell_length_c                         3.9000
_cell_angle_alpha                      90.00
_cell_angle_beta                       90.00
_cell_angle_gamma                      90.00
_symmetry_space_group_name_H-M_alt     'P 1'
_symmetry_space_group_IT_number        1

loop_
_space_group_symop_operation_xyz
   'x, y, z'

loop_
   _atom_site_label
   _atom_site_type_symbol
   _atom_site_fract_x
   _atom_site_fract_y
   _atom_site_fract_z
   _atom_site_charge
opls_716-0    C    0.47292008    0.64005010    0.30593077    -0.14190000
opls_716-1    C    0.45370000    0.65926004    0.30548974    -0.14190000
opls_543-2    C    0.46040000    0.61536004    0.40735897    0.19760000
opls_543-3    C    0.42900000    0.64675010    0.40668974    0.19780000
opls_543-4    C    0.46036998    0.56752008    0.57023077    0.19760000
opls_716-5    C    0.47286998    0.54283002    0.67238974    -0.14190000
opls_716-6    C    0.45366004    0.52360994    0.67145897    -0.14190000
opls_543-7    C    0.42899006    0.53610994    0.56893077    0.19760000
opls_543-8    C    0.38116998    0.53610994    0.40462051    0.19760000
opls_716-9    C    0.35650000    0.52360000    0.30207949    -0.18420000
opls_716-10    C    0.33727992    0.54282008    0.30172051    -0.18420000
opls_543-11    C    0.34976998    0.56750994    0.40397949    0.19760000
opls_543-12    C    0.34973996    0.61533996    0.56707949    0.19760000
opls_716-13    C    0.33720994    0.64003002    0.66866923    -0.18520000
opls_716-14    C    0.35643002    0.65923996    0.66982051    -0.18420000
opls_543-15    C    0.38113996    0.64673996    0.56862051    0.19760000
opls_700-16    C    0.33616004    0.59142008    0.48513077    -0.10880000
opls_700-17    C    0.40507992    0.52252008    0.48666923    -0.10910000
opls_700-18    C    0.47397992    0.59143996    0.48915897    -0.10890000
opls_700-19    C    0.40506998    0.66033996    0.48776923    -0.10890000
opls_700-20    C    0.50366998    0.59143996    0.48995128    0.07420000
opls_145-21    C    0.51829006    0.57102008    0.32590000    -0.12570000
opls_145-22    C    0.51822008    0.61186998    0.65475128    -0.12570000
opls_145-23    C    0.54597992    0.57103996    0.33041026    -0.04940000
opls_145-24    C    0.54592008    0.61186998    0.65176923    -0.04830000
opls_145-25    C    0.56017992    0.59146004    0.49144103    -0.22940000
opls_166-26    C    0.63179006    0.57889006    0.41158974    0.19230000
opls_166-27    C    0.63179006    0.60399006    0.57280000    0.19220000
opls_145-28    C    0.65506998    0.56513002    0.32293077    -0.27760000
opls_145-29    C    0.65506998    0.61775010    0.66152051    -0.27760000
opls_166-30    C    0.67834990    0.57889006    0.41158974    0.19220000
opls_166-31    C    0.67834990    0.60399006    0.57282051    0.19210000
opls_145-32    C    0.74996004    0.59143996    0.49145897    -0.22940000
opls_145-33    C    0.76416004    0.57103996    0.32997949    -0.04880000
opls_145-34    C    0.76422008    0.61183002    0.65221026    -0.04830000
opls_145-35    C    0.79186004    0.57102008    0.32538974    -0.12570000
opls_145-36    C    0.79192008    0.61183002    0.65521026    -0.12570000
opls_700-37    C    0.80646998    0.59142008    0.48993077    0.07420000
opls_700-38    C    0.40509006    0.49282008    0.48656923    0.07410000
opls_145-39    C    0.38463996    0.47823002    0.65035897    -0.12570000
opls_145-40    C    0.42555010    0.47825010    0.32268974    -0.12570000
opls_145-41    C    0.38466998    0.45053002    0.64654103    -0.04830000
opls_145-42    C    0.42553996    0.45055010    0.32627949    -0.04960000
opls_145-43    C    0.40510994    0.43632008    0.48634103    -0.22940000
opls_166-44    C    0.39256998    0.36470000    0.56621026    0.19750000
opls_166-45    C    0.41766998    0.36470994    0.40497949    0.19200000
opls_145-46    C    0.37882008    0.34140994    0.65475128    -0.27710000
opls_145-47    C    0.43143996    0.34143996    0.31603077    -0.27800000
opls_166-48    C    0.39259006    0.31813996    0.56582051    0.19200000
opls_166-49    C    0.41769006    0.31816004    0.40456923    0.19230000
opls_145-50    C    0.40516004    0.24653002    0.48493077    -0.22940000
opls_145-51    C    0.38473996    0.23233002    0.64585128    -0.04880000
opls_145-52    C    0.42555010    0.23229006    0.32413077    -0.04940000
opls_145-53    C    0.38470994    0.20463002    0.64986923    -0.12570000
opls_145-54    C    0.42553996    0.20459006    0.32052051    -0.12570000
opls_700-55    C    0.40512008    0.19003002    0.48527949    0.07430000
opls_700-56    C    0.30646998    0.59142008    0.48427949    0.07410000
opls_145-57    C    0.29192008    0.61183996    0.31917949    -0.12570000
opls_145-58    C    0.29184990    0.57100994    0.64864103    -0.12570000
opls_145-59    C    0.26422008    0.61183996    0.32217949    -0.04880000
opls_145-60    C    0.26416004    0.57103996    0.64413077    -0.04940000
opls_145-61    C    0.24996004    0.59143996    0.48282051    -0.22940000
opls_166-62    C    0.17834990    0.60400000    0.40148974    0.19230000
opls_166-63    C    0.17834990    0.57890000    0.56266923    0.19220000
opls_145-64    C    0.15507992    0.61776004    0.31280000    -0.27750000
opls_145-65    C    0.15506998    0.56513996    0.65134103    -0.27760000
opls_166-66    C    0.13179006    0.60400994    0.40148974    0.19200000
opls_166-67    C    0.13179006    0.57890000    0.56266923    0.19220000
opls_145-68    C    0.06017992    0.59146998    0.48276923    -0.22940000
opls_145-69    C    0.04592008    0.61189006    0.32264103    -0.04830000
opls_145-70    C    0.04597992    0.57103996    0.64358974    -0.04940000
opls_145-71    C    0.01822008    0.61189006    0.31964103    -0.12170000
opls_145-72    C    0.01829006    0.57100994    0.64804872    -0.12570000
opls_700-73    C    0.00367992    0.59145010    0.48421026    0.07410000
opls_700-74    C    0.40506004    0.69003002    0.48793077    0.07430000
opls_145-75    C    0.42546998    0.70460994    0.65266923    -0.12570000
opls_145-76    C    0.38463996    0.70460994    0.32334103    -0.12570000
opls_145-77    C    0.42544990    0.73230994    0.64907949    -0.04830000
opls_145-78    C    0.38463996    0.73230994    0.32738974    -0.04830000
opls_145-79    C    0.40503996    0.74653002    0.48838974    -0.22940000
opls_166-80    C    0.41753996    0.81815010    0.56972051    0.19750000
opls_166-81    C    0.39244990    0.81815010    0.40845897    0.19230000
opls_145-82    C    0.43129006    0.84143002    0.65854103    -0.27760000
opls_145-83    C    0.37867992    0.84142008    0.31984872    -0.27710000
opls_166-84    C    0.41753002    0.86470994    0.56986923    0.19230000
opls_166-85    C    0.39243002    0.86470000    0.40864103    0.19230000
opls_145-86    C    0.40499006    0.93632008    0.48884872    -0.22940000
opls_145-87    C    0.42543002    0.95053996    0.64884872    -0.04940000
opls_145-88    C    0.38454990    0.95055010    0.32858974    -0.04830000
opls_145-89    C    0.42546998    0.97823996    0.65231026    -0.12570000
opls_145-90    C    0.38454990    0.97823996    0.32466923    -0.12570000
opls_700-91    C    0.40502008    0.99282008    0.48838974    0.06760000
opls_700-92    C    0.83616004    0.59143002    0.48907949    -0.10860000
opls_543-93    C    0.84973002    0.61536004    0.40744103    0.19760000
opls_543-94    C    0.84976998    0.56750000    0.56984872    0.19760000
opls_716-95    C    0.83720994    0.64005010    0.30623077    -0.13850000
opls_716-96    C    0.83727992    0.54280994    0.67172051    -0.14190000
opls_716-97    C    0.85643002    0.65926004    0.30548974    -0.14190000
opls_543-98    C    0.88113002    0.64675010    0.40648974    0.19760000
opls_716-99    C    0.85650000    0.52359006    0.67085128    -0.18420000
opls_543-100    C    0.88116998    0.53610994    0.56848974    0.19760000
opls_700-101    C    0.90506998    0.66033996    0.48752051    -0.10860000
opls_700-102    C    0.90507992    0.52252008    0.48621026    -0.10860000
opls_543-103    C    0.92899006    0.64675010    0.56838974    0.19780000
opls_543-104    C    0.92897992    0.53613002    0.40421026    0.19760000
opls_716-105    C    0.95369006    0.65924990    0.66980000    -0.18420000
opls_716-106    C    0.95365010    0.52363002    0.30148974    -0.18520000
opls_716-107    C    0.97292008    0.64003996    0.66895128    -0.14190000
opls_543-108    C    0.96040000    0.61536004    0.56713077    0.19780000
opls_716-109    C    0.97286998    0.54286004    0.30103077    -0.18420000
opls_543-110    C    0.96037992    0.56753002    0.40354103    0.19760000
opls_700-111    C    0.97397992    0.59145010    0.48497949    -0.10870000
opls_700-112    C    0.40510000    0.16033996    0.48556923    -0.10890000
opls_543-113    C    0.42903002    0.14673996    0.56676923    0.19760000
opls_543-114    C    0.38116998    0.14674990    0.40485128    0.19760000
opls_716-115    C    0.45373002    0.15923996    0.66790000    -0.14190000
opls_716-116    C    0.35646998    0.15926004    0.30362051    -0.18430000
opls_716-117    C    0.47293996    0.14002008    0.66766923    -0.14190000
opls_543-118    C    0.46040994    0.11533002    0.56638974    0.19760000
opls_716-119    C    0.33723002    0.14006004    0.30510000    -0.14190000
opls_543-120    C    0.34973996    0.11537992    0.40690000    0.19780000
opls_700-121    C    0.47397992    0.09140000    0.48475128    -0.10890000
opls_700-122    C    0.33616004    0.09146998    0.48907949    -0.10860000
opls_543-123    C    0.46036004    0.06747992    0.40393077    0.19760000
opls_543-124    C    0.34976004    0.06755010    0.57041026    0.19760000
opls_716-125    C    0.47283996    0.04277992    0.30203077    -0.18430000
opls_716-126    C    0.33724990    0.04286998    0.67286923    -0.18430000
opls_716-127    C    0.45360994    0.02356998    0.30327949    -0.18420000
opls_543-128    C    0.42894990    0.03609006    0.40572051    0.19780000
opls_716-129    C    0.35646004    0.02364990    0.67268974    -0.14190000
opls_543-130    C    0.38113996    0.03613002    0.57005128    0.19760000
opls_700-131    C    0.40503996    0.02252008    0.48810000    -0.10860000
opls_700-132    C    0.90509006    0.49283002    0.48584872    0.07420000
opls_145-133    C    0.88464990    0.47825010    0.32184872    -0.12570000
opls_145-134    C    0.92556004    0.47823996    0.64954103    -0.11880000
opls_145-135    C    0.88467992    0.45055010    0.32517949    -0.04830000
opls_145-136    C    0.92555010    0.45055010    0.64548974    -0.04830000
opls_145-137    C    0.90512008    0.43632008    0.48517949    -0.22940000
opls_166-138    C    0.89256998    0.36470994    0.40434103    0.19230000
opls_166-139    C    0.91766998    0.36470994    0.56558974    0.19220000
opls_145-140    C    0.87880994    0.34143002    0.31568974    -0.27750000
opls_145-141    C    0.93143002    0.34143002    0.65438974    -0.27760000
opls_166-142    C    0.89256998    0.31815010    0.40452051    0.19230000
opls_166-143    C    0.91766004    0.31815010    0.56576923    0.19230000
opls_145-144    C    0.90509006    0.24653996    0.48572051    -0.22940000
opls_145-145    C    0.88467992    0.23230994    0.32503077    -0.04940000
opls_145-146    C    0.92549006    0.23232008    0.64676923    -0.04830000
opls_145-147    C    0.88466004    0.20460994    0.32156923    -0.12570000
opls_145-148    C    0.92549006    0.20462008    0.65095128    -0.11880000
opls_700-149    C    0.90506998    0.19003996    0.48641026    0.07420000
opls_700-150    C    0.90506998    0.69003996    0.48782051    0.07420000
opls_145-151    C    0.88466004    0.70460994    0.65266923    -0.12570000
opls_145-152    C    0.92549006    0.70462008    0.32327949    -0.11880000
opls_145-153    C    0.88467992    0.73230994    0.64921026    -0.04880000
opls_145-154    C    0.92549006    0.73232008    0.32745897    -0.04830000
opls_145-155    C    0.90509006    0.74653996    0.48852051    -0.22940000
opls_166-156    C    0.89256004    0.81815010    0.56974872    0.19230000
opls_166-157    C    0.91766004    0.81815010    0.40848974    0.19200000
opls_145-158    C    0.87880994    0.84143002    0.65856923    -0.27760000
opls_145-159    C    0.93143002    0.84143002    0.31986923    -0.27760000
opls_166-160    C    0.89256998    0.86470994    0.56993077    0.19230000
opls_166-161    C    0.91766998    0.86470994    0.40866923    0.19220000
opls_145-162    C    0.90512008    0.93632008    0.48910000    -0.22940000
opls_145-163    C    0.88466998    0.95055010    0.64907949    -0.04830000
opls_145-164    C    0.92555010    0.95055010    0.32876923    -0.04940000
opls_145-165    C    0.88463996    0.97825010    0.65241026    -0.12570000
opls_145-166    C    0.92555010    0.97823996    0.32472051    -0.12570000
opls_700-167    C    0.90509006    0.99283002    0.48841026    0.07420000
opls_700-168    C    0.90506004    0.16033996    0.48672051    -0.10860000
opls_543-169    C    0.88113002    0.14674990    0.56774872    0.19780000
opls_543-170    C    0.92899006    0.14674990    0.40585128    0.19760000
opls_716-171    C    0.85643002    0.15926004    0.66872051    -0.18420000
opls_716-172    C    0.95369006    0.15925010    0.30444103    -0.14190000
opls_716-173    C    0.83720000    0.14004990    0.66794872    -0.18420000
opls_543-174    C    0.84973002    0.11536004    0.56672051    0.19760000
opls_716-175    C    0.97290994    0.14003996    0.30534103    -0.14190000
opls_543-176    C    0.96040000    0.11536004    0.40715897    0.19760000
opls_700-177    C    0.83616004    0.09143002    0.48510000    -0.10860000
opls_700-178    C    0.97397992    0.09143996    0.48934103    -0.10860000
opls_543-179    C    0.84976998    0.06750994    0.40434103    0.19780000
opls_543-180    C    0.96036998    0.06753002    0.57075128    0.19790000
opls_716-181    C    0.83727992    0.04280994    0.30248974    -0.18420000
opls_716-182    C    0.97286004    0.04285010    0.67325897    -0.14190000
opls_716-183    C    0.85650000    0.02359006    0.30341026    -0.18420000
opls_543-184    C    0.88116998    0.03610994    0.40576923    0.19780000
opls_716-185    C    0.95365010    0.02363002    0.67276923    -0.14190000
opls_543-186    C    0.92897992    0.03613002    0.57005128    0.19760000
opls_700-187    C    0.90506998    0.02252008    0.48804872    -0.10860000
opls_700-188    C    0.50366998    0.09139006    0.48394872    0.07430000
opls_145-189    C    0.51827992    0.07096998    0.64815897    -0.12570000
opls_145-190    C    0.51822008    0.11180994    0.31904872    -0.12570000
opls_145-191    C    0.54596998    0.07099006    0.64372051    -0.04960000
opls_145-192    C    0.54592008    0.11180994    0.32215897    -0.04880000
opls_145-193    C    0.56016998    0.09140000    0.48262051    -0.22940000
opls_166-194    C    0.63179006    0.07886004    0.56264103    0.19230000
opls_166-195    C    0.63179006    0.10396004    0.40144103    0.19220000
opls_145-196    C    0.65506998    0.06510994    0.65135897    -0.27710000
opls_145-197    C    0.65506004    0.11773002    0.31272051    -0.27710000
opls_166-198    C    0.67834990    0.07886998    0.56268974    0.19240000
opls_166-199    C    0.67833996    0.10396998    0.40144103    0.20130000
opls_145-200    C    0.74996004    0.09143996    0.48276923    -0.22940000
opls_145-201    C    0.76416004    0.07105010    0.64423077    -0.04940000
opls_145-202    C    0.76420994    0.11183002    0.32200000    -0.04940000
opls_145-203    C    0.79185010    0.07102008    0.64880000    -0.12570000
opls_145-204    C    0.79190994    0.11183996    0.31897949    -0.11880000
opls_700-205    C    0.80646004    0.09143002    0.48425897    0.06740000
opls_700-206    C    0.30646004    0.09146998    0.48990000    0.07420000
opls_145-207    C    0.29184990    0.07106004    0.32568974    -0.12570000
opls_145-208    C    0.29192008    0.11190000    0.65490000    -0.12570000
opls_145-209    C    0.26414990    0.07109006    0.33023077    -0.04830000
opls_145-210    C    0.26422008    0.11190000    0.65197949    -0.04940000
opls_145-211    C    0.24996004    0.09150000    0.49148974    -0.22940000
opls_166-212    C    0.17834990    0.07892008    0.41166923    0.19220000
opls_166-213    C    0.17833996    0.10403002    0.57286923    0.19830000
opls_145-214    C    0.15506998    0.06516004    0.32303077    -0.27710000
opls_145-215    C    0.15506004    0.11777992    0.66154103    -0.27800000
opls_166-216    C    0.13179006    0.07892008    0.41166923    0.19220000
opls_166-217    C    0.13177992    0.10402008    0.57285128    0.19230000
opls_145-218    C    0.06016998    0.09146998    0.49152051    -0.22940000
opls_145-219    C    0.04597992    0.07103996    0.33068974    -0.04830000
opls_145-220    C    0.04592008    0.11187992    0.65164103    -0.04960000
opls_145-221    C    0.01827992    0.07100994    0.32625897    -0.11880000
opls_145-222    C    0.01822008    0.11189006    0.65464103    -0.12570000
opls_700-223    C    0.00366998    0.09143996    0.49010000    0.07420000
opls_542-224    N    0.43352008    0.61987992    0.44521026    -0.34780000
opls_542-225    N    0.43350994    0.56299006    0.53076923    -0.34780000
opls_542-226    N    0.37663996    0.56297992    0.44313077    -0.34780000
opls_542-227    N    0.37662008    0.61986998    0.52962051    -0.34780000
opls_542-228    N    0.87662008    0.61987992    0.44503077    -0.34780000
opls_542-229    N    0.87663996    0.56297992    0.53048974    -0.34780000
opls_542-230    N    0.93352008    0.61987992    0.52941026    -0.34780000
opls_542-231    N    0.93350994    0.56300000    0.44282051    -0.34780000
opls_542-232    N    0.43353002    0.11986004    0.52848974    -0.34780000
opls_542-233    N    0.37663002    0.11987992    0.44417949    -0.34780000
opls_542-234    N    0.43349006    0.06296998    0.44352051    -0.34780000
opls_542-235    N    0.37662008    0.06300000    0.53127949    -0.34770000
opls_542-236    N    0.87660994    0.11987992    0.52917949    -0.34780000
opls_542-237    N    0.93350994    0.11987992    0.44484872    -0.34780000
opls_542-238    N    0.87663002    0.06297992    0.44372051    -0.34770000
opls_542-239    N    0.93350994    0.06300000    0.53144103    -0.34770000
Zn2+-240    Zn    0.40506998    0.59143002    0.48717949    0.73080000
Zn2+-241    Zn    0.90506998    0.59143996    0.48695128    0.73090000
Zn2+-242    Zn    0.40506998    0.09143002    0.48684872    0.73080000
Zn2+-243    Zn    0.90506004    0.09143002    0.48727949    0.73070000
opls_547-244    H    0.31637992    0.53967992    0.23462051    0.10360000
opls_547-245    H    0.35337992    0.50269006    0.23525897    0.06790000
opls_547-246    H    0.45679006    0.50269006    0.73785128    0.08350000
opls_547-247    H    0.49376004    0.53970000    0.73990000    0.06960000
opls_547-248    H    0.49383996    0.64320000    0.23986923    0.06790000
opls_547-249    H    0.45683996    0.68017992    0.23903077    0.12410000
opls_547-250    H    0.35329006    0.68015010    0.73682051    0.12410000
opls_547-251    H    0.31626998    0.64317992    0.73421026    0.08250000
opls_146-252    H    0.50789006    0.55520994    0.18494872    0.07960000
opls_146-253    H    0.50776998    0.62766998    0.79504872    0.07030000
opls_146-254    H    0.55786998    0.55560000    0.20310000    0.07040000
opls_146-255    H    0.55773996    0.62733002    0.77974872    0.07030000
opls_146-256    H    0.65506998    0.54567992    0.19595128    0.09290000
opls_146-257    H    0.65507992    0.63720000    0.78844103    0.09210000
opls_146-258    H    0.75227992    0.55560994    0.20234103    0.07030000
opls_146-259    H    0.75240000    0.62726998    0.78048974    0.07630000
opls_146-260    H    0.80225010    0.55523996    0.18400000    0.07830000
opls_146-261    H    0.80236998    0.62760994    0.79590000    0.07030000
opls_146-262    H    0.36880000    0.48863996    0.79041026    0.07030000
opls_146-263    H    0.44137992    0.48867992    0.18264103    0.07260000
opls_146-264    H    0.36919006    0.43866998    0.77362051    0.06760000
opls_146-265    H    0.44102008    0.43870994    0.19904872    0.07830000
opls_146-266    H    0.35937992    0.34140000    0.78180000    0.09430000
opls_146-267    H    0.45087992    0.34146004    0.18897949    0.09430000
opls_146-268    H    0.36930000    0.24420994    0.77345897    0.06760000
opls_146-269    H    0.44100994    0.24412008    0.19631026    0.07030000
opls_146-270    H    0.36890994    0.19423002    0.79076923    0.07830000
opls_146-271    H    0.44133002    0.19416004    0.17968974    0.06760000
opls_146-272    H    0.30236998    0.62763002    0.17866923    0.07030000
opls_146-273    H    0.30224990    0.55522008    0.78984872    0.06760000
opls_146-274    H    0.25240000    0.62729006    0.19400000    0.07030000
opls_146-275    H    0.25226998    0.55560000    0.77166923    0.07960000
opls_146-276    H    0.15507992    0.63720994    0.18590000    0.09210000
opls_146-277    H    0.15506004    0.54569006    0.77827949    0.09290000
opls_146-278    H    0.05773996    0.62736004    0.19485128    0.07030000
opls_146-279    H    0.05786998    0.55559006    0.77074872    0.07260000
opls_146-280    H    0.00776998    0.62770000    0.17956923    0.07830000
opls_146-281    H    0.00789006    0.55519006    0.78876923    0.11610000
opls_146-282    H    0.44126998    0.69419006    0.79345897    0.06760000
opls_146-283    H    0.36885010    0.69419006    0.18241026    0.07070000
opls_146-284    H    0.44090000    0.74416004    0.77693077    0.06760000
opls_146-285    H    0.36917992    0.74416004    0.19976923    0.06760000
opls_146-286    H    0.45073996    0.84143996    0.78554103    0.09510000
opls_146-287    H    0.35923002    0.84142008    0.19276923    0.09460000
opls_146-288    H    0.44090000    0.93867992    0.77610000    0.07070000
opls_146-289    H    0.36906004    0.93870000    0.20156923    0.06760000
opls_146-290    H    0.44130994    0.98866004    0.79234103    0.06760000
opls_146-291    H    0.36872008    0.98866998    0.18456923    0.06760000
opls_547-292    H    0.81627992    0.64320000    0.24064103    0.06790000
opls_547-293    H    0.81637992    0.53966004    0.73895128    0.08350000
opls_547-294    H    0.85327992    0.68017992    0.23893077    0.10800000
opls_547-295    H    0.85336998    0.50266998    0.73717949    0.08350000
opls_547-296    H    0.95683996    0.68016004    0.73668974    0.12410000
opls_547-297    H    0.95679006    0.50272008    0.23464103    0.13220000
opls_547-298    H    0.99383996    0.64319006    0.73493077    0.10360000
opls_547-299    H    0.99376998    0.53972008    0.23356923    0.13220000
opls_547-300    H    0.45689006    0.18016004    0.73421026    0.12410000
opls_547-301    H    0.35333996    0.18016004    0.23634103    0.06790000
opls_547-302    H    0.49386004    0.14316004    0.73372051    0.10360000
opls_547-303    H    0.31630000    0.14322008    0.23966923    0.06790000
opls_547-304    H    0.49373002    0.03963002    0.23441026    0.06790000
opls_547-305    H    0.31634990    0.03973996    0.74000000    0.10360000
opls_547-306    H    0.45673996    0.00263996    0.23721026    0.12410000
opls_547-307    H    0.35332008    0.00273996    0.73968974    0.12410000
opls_146-308    H    0.86880000    0.48866998    0.18195128    0.11610000
opls_146-309    H    0.94139006    0.48866004    0.78980000    0.11610000
opls_146-310    H    0.86920000    0.43870000    0.19790000    0.11610000
opls_146-311    H    0.94103996    0.43869006    0.77252051    0.07200000
opls_146-312    H    0.85936998    0.34143002    0.18866923    0.09430000
opls_146-313    H    0.95086998    0.34143002    0.78144103    0.09430000
opls_146-314    H    0.86923996    0.24416004    0.19715897    0.07830000
opls_146-315    H    0.94093996    0.24417992    0.77435897    0.07030000
opls_146-316    H    0.86886004    0.19419006    0.18090000    0.07030000
opls_146-317    H    0.94127992    0.19420000    0.79200000    0.11610000
opls_146-318    H    0.86886004    0.69419006    0.79334103    0.07030000
opls_146-319    H    0.94127992    0.69420000    0.18223077    0.11610000
opls_146-320    H    0.86923002    0.74416004    0.77707949    0.06760000
opls_146-321    H    0.94093996    0.74417992    0.19986923    0.07030000
opls_146-322    H    0.85936004    0.84143002    0.78558974    0.09510000
opls_146-323    H    0.95086998    0.84143002    0.19282051    0.09430000
opls_146-324    H    0.86920000    0.93870000    0.77635897    0.07830000
opls_146-325    H    0.94103002    0.93869006    0.20174872    0.07260000
opls_146-326    H    0.86880000    0.98866998    0.79231026    0.07830000
opls_146-327    H    0.94137992    0.98866004    0.18445897    0.11610000
opls_547-328    H    0.85327992    0.18017992    0.73531026    0.08250000
opls_547-329    H    0.95683002    0.18016004    0.23752051    0.13220000
opls_547-330    H    0.81626998    0.14320994    0.73354103    0.08350000
opls_547-331    H    0.99383996    0.14319006    0.23935897    0.10790000
opls_547-332    H    0.81637992    0.03966004    0.23523077    0.08350000
opls_547-333    H    0.99376004    0.03972008    0.74072051    0.13220000
opls_547-334    H    0.85336998    0.00266998    0.23713077    0.06790000
opls_547-335    H    0.95677992    0.00272008    0.73958974    0.08350000
opls_146-336    H    0.50787992    0.05516998    0.78917949    0.06760000
opls_146-337    H    0.50776998    0.12760994    0.17862051    0.06760000
opls_146-338    H    0.55784990    0.05555010    0.77115897    0.07830000
opls_146-339    H    0.55775010    0.12726998    0.19415897    0.11610000
opls_146-340    H    0.65507992    0.04566004    0.77834103    0.09290000
opls_146-341    H    0.65506004    0.13717992    0.18582051    0.09210000
opls_146-342    H    0.75226998    0.05562008    0.77190000    0.11610000
opls_146-343    H    0.75240000    0.12727992    0.19368974    0.07830000
opls_146-344    H    0.80225010    0.05523996    0.79017949    0.06760000
opls_146-345    H    0.80236998    0.12762008    0.17825897    0.11610000
opls_146-346    H    0.30223996    0.05526004    0.18456923    0.07070000
opls_146-347    H    0.30236998    0.12769006    0.79527949    0.07630000
opls_146-348    H    0.25226004    0.05565010    0.20282051    0.06770000
opls_146-349    H    0.25240000    0.12735010    0.78010000    0.07830000
opls_146-350    H    0.15507992    0.04570994    0.19607949    0.09290000
opls_146-351    H    0.15506004    0.13723002    0.78841026    0.10160000
opls_146-352    H    0.05786004    0.05557992    0.20352051    0.06760000
opls_146-353    H    0.05773996    0.12735010    0.77944103    0.07030000
opls_146-354    H    0.00787992    0.05519006    0.18552051    0.11610000
opls_146-355    H    0.00776998    0.12770000    0.79472051    0.07830000
MOF2_B_2-356    B    0.58992008    0.59146004    0.49190000    0.62050000
MOF2_B_2-357    B    0.72022008    0.59143996    0.49193077    0.62050000
MOF2_B_2-358    B    0.40512008    0.40657992    0.48603077    0.62050000
MOF2_B_2-359    B    0.40515010    0.27626998    0.48495128    0.62050000
MOF2_B_2-360    B    0.22022008    0.59145010    0.48234103    0.62050000
MOF2_B_2-361    B    0.08992008    0.59146998    0.48234103    0.62050000
MOF2_B_2-362    B    0.40502008    0.77626998    0.48872051    0.62050000
MOF2_B_2-363    B    0.40497992    0.90657992    0.48910000    0.62060000
MOF2_B_2-364    B    0.90513002    0.40657992    0.48497949    0.62050000
MOF2_B_2-365    B    0.90510000    0.27627992    0.48541026    0.62050000
MOF2_B_2-366    B    0.90510000    0.77627992    0.48882051    0.62050000
MOF2_B_2-367    B    0.90512008    0.90657992    0.48927949    0.62050000
MOF2_B_2-368    B    0.58990994    0.09140994    0.48223077    0.62050000
MOF2_B_2-369    B    0.72022008    0.09143996    0.48234103    0.62050000
MOF2_B_2-370    B    0.22022008    0.09149006    0.49200000    0.62050000
MOF2_B_2-371    B    0.08990994    0.09146998    0.49197949    0.62050000
opls_167-372    O    0.60560000    0.57100000    0.35982051    -0.31180000
opls_167-373    O    0.60560000    0.61190000    0.62427949    -0.31620000
opls_167-374    O    0.70453996    0.57099006    0.35982051    -0.31620000
opls_167-375    O    0.70454990    0.61189006    0.62434103    -0.31490000
opls_167-376    O    0.38466998    0.39087992    0.61813077    -0.31180000
opls_167-377    O    0.42556998    0.39090994    0.35358974    -0.31490000
opls_167-378    O    0.38470000    0.29193996    0.61734103    -0.31180000
opls_167-379    O    0.42559006    0.29196998    0.35272051    -0.31480000
opls_167-380    O    0.20454990    0.61190000    0.34997949    -0.31490000
opls_167-381    O    0.20453996    0.57099006    0.61444103    -0.31490000
opls_167-382    O    0.10560000    0.61190994    0.35000000    -0.31680000
opls_167-383    O    0.10560000    0.57100994    0.61441026    -0.31180000
opls_167-384    O    0.42546004    0.79196004    0.62115897    -0.31490000
opls_167-385    O    0.38456004    0.79194990    0.35658974    -0.31510000
opls_167-386    O    0.42543002    0.89090000    0.62144103    -0.31170000
opls_167-387    O    0.38452008    0.89089006    0.35694872    -0.31510000
opls_167-388    O    0.88467992    0.39090000    0.35268974    -0.31620000
opls_167-389    O    0.92557992    0.39090000    0.61721026    -0.31180000
opls_167-390    O    0.88466004    0.29196004    0.35303077    -0.31620000
opls_167-391    O    0.92556004    0.29196004    0.61758974    -0.31490000
opls_167-392    O    0.88466004    0.79196004    0.62123077    -0.31680000
opls_167-393    O    0.92556004    0.79196004    0.35666923    -0.31490000
opls_167-394    O    0.88466998    0.89090000    0.62154103    -0.31180000
opls_167-395    O    0.92556998    0.89090000    0.35707949    -0.31610000
opls_167-396    O    0.60560000    0.07096004    0.61438974    -0.31490000
opls_167-397    O    0.60559006    0.11186004    0.34990000    -0.31550000
opls_167-398    O    0.70453996    0.07097992    0.61445897    -0.31180000
opls_167-399    O    0.70453996    0.11187992    0.34993077    -0.31550000
opls_167-400    O    0.20453996    0.07103002    0.35990000    -0.31180000
opls_167-401    O    0.20453996    0.11193996    0.62435897    -0.31510000
opls_167-402    O    0.10560000    0.07100994    0.35993077    -0.31550000
opls_167-403    O    0.10559006    0.11192008    0.62431026    -0.31180000
