#======================================================================
# Crystal Data Generated By AuToFF
#----------------------------------------------------------------------

data_AuToFF_phase_1

_cell_length_a                         27.8250
_cell_length_b                         27.8250
_cell_length_c                         4.1090
_cell_angle_alpha                      90.00
_cell_angle_beta                       90.00
_cell_angle_gamma                      120.00
_symmetry_space_group_name_H-M_alt     'P 1'
_symmetry_space_group_IT_number        1

loop_
_space_group_symop_operation_xyz
   'x, y, z'

loop_
   _atom_site_label
   _atom_site_type_symbol
   _atom_site_fract_x
   _atom_site_fract_y
   _atom_site_fract_z
   _atom_site_charge
opls_145-0    C    0.24099993    0.65719985    0.18330007    -0.14430000
opls_145-1    C    0.18150007    0.62639996    0.16110002    -0.09940000
opls_523-2    C    0.82090010    0.38830012    0.89719883    -0.09970000
opls_145-3    C    0.87979985    0.42499988    0.92070090    -0.09910000
opls_916-4    C    0.27119972    0.63559980    0.34870041    0.18790000
opls_700-5    C    0.14999989    0.57199977    0.30009978    -0.03490000
opls_531-6    C    0.72420003    0.36789979    0.72290095    0.32400000
opls_700-7    C    0.90570014    0.47890000    0.77599903    0.05550000
opls_700-8    C    0.78679999    0.40550007    0.73449988    -0.01010000
opls_145-9    C    0.17999985    0.55109980    0.47440010    -0.09910000
opls_145-10    C    0.23950002    0.58249976    0.49860063    -0.16790000
opls_145-11    C    0.87189981    0.49549988    0.60640058    -0.09960000
opls_523-12    C    0.81279998    0.45939978    0.58939888    -0.09910000
opls_234-13    C    0.08659987    0.53600009    0.26770017    0.41070000
opls_142-14    C    0.96770021    0.51820007    0.80210027    0.05780000
opls_145-15    C    0.34279987    0.58379992    0.18330007    -0.14430000
opls_145-16    C    0.37359988    0.55509985    0.16110002    -0.09940000
opls_523-17    C    0.61170015    0.43259994    0.89719883    -0.09970000
opls_145-18    C    0.57500003    0.45480007    0.92070090    -0.09910000
opls_916-19    C    0.36440008    0.63559980    0.34870041    0.18790000
opls_700-20    C    0.42800021    0.57800006    0.30009978    -0.03490000
opls_531-21    C    0.63210008    0.35630008    0.72290095    0.32400000
opls_700-22    C    0.52109995    0.42680009    0.77599903    0.05550000
opls_700-23    C    0.59450019    0.38130012    0.73449988    -0.01010000
opls_145-24    C    0.44889987    0.62889984    0.47440010    -0.09910000
opls_145-25    C    0.41749973    0.65699983    0.49860063    -0.16790000
opls_145-26    C    0.50450007    0.37639996    0.60640058    -0.09960000
opls_523-27    C    0.54060017    0.35340015    0.58939888    -0.09910000
opls_234-28    C    0.46399996    0.55059974    0.26770017    0.41070000
opls_142-29    C    0.48180006    0.44949986    0.80210027    0.05780000
opls_145-30    C    0.41620000    0.75899982    0.18330007    -0.14430000
opls_145-31    C    0.44489984    0.81849977    0.16110002    -0.09940000
opls_523-32    C    0.56740011    0.17909994    0.89719883    -0.09970000
opls_145-33    C    0.54520012    0.12020006    0.92070090    -0.09910000
opls_916-34    C    0.36440000    0.72879999    0.34870041    0.18790000
opls_700-35    C    0.42200006    0.84999975    0.30009978    -0.03490000
opls_531-36    C    0.64370025    0.27580014    0.72290095    0.32400000
opls_700-37    C    0.57319991    0.09429991    0.77599903    0.05550000
opls_700-38    C    0.61869982    0.21319981    0.73449988    -0.01010000
opls_145-39    C    0.37110006    0.81999995    0.47440010    -0.09910000
opls_145-40    C    0.34300004    0.76049999    0.49860063    -0.16780000
opls_145-41    C    0.62360012    0.12810016    0.60640058    -0.09960000
opls_523-42    C    0.64660021    0.18720007    0.58939888    -0.09910000
opls_234-43    C    0.44939997    0.91339975    0.26770017    0.41080000
opls_142-44    C    0.55050008    0.03230007    0.80210027    0.05780000
opls_146-45    H    0.26350001    0.69810011    0.06990022    0.10630000
opls_146-46    H    0.16099979    0.64579975    0.03420054    0.10720000
opls_526-47    H    0.80159987    0.34709982    0.01290095    0.10110000
opls_146-48    H    0.90529986    0.41119991    0.05170114    0.10110000
opls_146-49    H    0.15710013    0.50979991    0.58960088    0.11590000
opls_146-50    H    0.26090020    0.56450013    0.62750061    0.10800000
opls_146-51    H    0.89109993    0.53669976    0.49060112    0.13060000
opls_526-52    H    0.78709978    0.47319975    0.46000000    0.10150000
opls_144-53    H    0.98869993    0.55320005    0.63679971    0.10230000
opls_910-54    H    0.07709991    0.58229974    0.89860063    0.26310000
opls_146-55    H    0.30189991    0.56539982    0.06990022    0.10630000
opls_146-56    H    0.35420025    0.51520013    0.03420054    0.10720000
opls_526-57    H    0.65289997    0.45450003    0.01290095    0.10130000
opls_146-58    H    0.58879993    0.49410013    0.05170114    0.10110000
opls_146-59    H    0.49019983    0.64729993    0.58960088    0.11590000
opls_146-60    H    0.43549986    0.69639991    0.62750061    0.10810000
opls_146-61    H    0.46329984    0.35439985    0.49060112    0.13060000
opls_526-62    H    0.52680017    0.31390006    0.46000000    0.10150000
opls_144-63    H    0.44680007    0.43549987    0.63679971    0.10230000
opls_910-64    H    0.41769999    0.49479980    0.89860063    0.26320000
opls_146-65    H    0.43460008    0.73650007    0.06990022    0.10620000
opls_146-66    H    0.48479976    0.83899970    0.03420054    0.10720000
opls_526-67    H    0.54550016    0.19840014    0.01290095    0.10110000
opls_146-68    H    0.50589984    0.09469996    0.05170114    0.10120000
opls_146-69    H    0.35269983    0.84289974    0.58960088    0.11590000
opls_146-70    H    0.30359994    0.73909996    0.62750061    0.10800000
opls_146-71    H    0.64560003    0.10889997    0.49060112    0.13060000
opls_526-72    H    0.68609984    0.21289978    0.46000000    0.10150000
opls_144-73    H    0.56450000    0.01130009    0.63679971    0.10230000
opls_910-74    H    0.50519989    0.92290004    0.89860063    0.26310000
opls_520-75    N    0.70110012    0.31040006    0.72339985    -0.41030000
opls_238-76    N    0.05599997    0.54879994    0.05730105    -0.21270000
opls_750-77    N    0.99700001    0.51189974    0.02449988    -0.19130000
opls_520-78    N    0.68960013    0.39069998    0.72339985    -0.41030000
opls_238-79    N    0.45120001    0.50720002    0.05730105    -0.21270000
opls_750-80    N    0.48810000    0.48509990    0.02449988    -0.19130000
opls_520-81    N    0.60930011    0.29889995    0.72339985    -0.41040000
opls_238-82    N    0.49280002    0.94400004    0.05730105    -0.21270000
opls_750-83    N    0.51489979    0.00299994    0.02449988    -0.19130000
opls_239-84    N    0.33332989    0.66666985    0.35779995    -0.11530000
opls_236-85    O    0.06119989    0.49330004    0.43000000    -0.46720000
opls_236-86    O    0.50670010    0.56790012    0.43000000    -0.46720000
opls_236-87    O    0.43210001    0.93879984    0.43000000    -0.46730000
