#======================================================================
# Crystal Data Generated By AuToFF
#----------------------------------------------------------------------

data_AuToFF_phase_1

_cell_length_a                         56.0000
_cell_length_b                         50.0000
_cell_length_c                         3.8600
_cell_angle_alpha                      90.00
_cell_angle_beta                       76.00
_cell_angle_gamma                      90.00
_symmetry_space_group_name_H-M_alt     'P 1'
_symmetry_space_group_IT_number        1

loop_
_space_group_symop_operation_xyz
   'x, y, z'

loop_
   _atom_site_label
   _atom_site_type_symbol
   _atom_site_fract_x
   _atom_site_fract_y
   _atom_site_fract_z
   _atom_site_charge
opls_700-0    C    0.52447002    0.52462000    0.04623879    0.03020000
opls_700-1    C    0.02453005    0.02466000    0.04191075    0.03310000
opls_700-2    C    0.47552998    0.52462000    0.95376121    0.03020000
opls_700-3    C    0.97546995    0.02466000    0.95808925    0.03310000
opls_700-4    C    0.47552998    0.47538000    0.95376121    0.03020000
opls_700-5    C    0.97546995    0.97534000    0.95808925    0.03310000
opls_700-6    C    0.52447002    0.47538000    0.04623879    0.03020000
opls_700-7    C    0.02453005    0.97534000    0.04191075    0.03310000
opls_145-8    C    0.48797999    0.54855000    0.98278127    -0.13090000
opls_145-9    C    0.98796994    0.04862000    0.98271986    -0.12830000
opls_145-10    C    0.51202001    0.54855000    0.01721873    -0.13090000
opls_145-11    C    0.01203006    0.04862000    0.01729082    -0.12820000
opls_145-12    C    0.51202001    0.45145000    0.01721873    -0.13090000
opls_145-13    C    0.01203006    0.95138000    0.01729082    -0.12830000
opls_145-14    C    0.48797999    0.45145000    0.98278127    -0.13090000
opls_145-15    C    0.98796994    0.95138000    0.98271986    -0.12830000
opls_700-16    C    0.45099997    0.52444000    0.91387164    0.03100000
opls_700-17    C    0.95092002    0.02446000    0.92086166    0.02910000
opls_700-18    C    0.54899998    0.52444000    0.08613103    0.03100000
opls_700-19    C    0.04907994    0.02446000    0.07914101    0.02910000
opls_700-20    C    0.54899998    0.47556000    0.08613103    0.03100000
opls_700-21    C    0.04907994    0.97554000    0.07914101    0.02910000
opls_700-22    C    0.45099997    0.47556000    0.91387164    0.03100000
opls_700-23    C    0.95092002    0.97554000    0.92086166    0.02910000
opls_700-24    C    0.43453999    0.54828000    0.97580994    0.06960000
opls_700-25    C    0.93455003    0.04835000    0.95981940    0.06940000
opls_700-26    C    0.56546001    0.54828000    0.02419006    0.06960000
opls_700-27    C    0.06544997    0.04835000    0.04018060    0.06940000
opls_700-28    C    0.56546001    0.45172000    0.02419006    0.06960000
opls_700-29    C    0.06544997    0.95165000    0.04018060    0.06940000
opls_700-30    C    0.43453999    0.45172000    0.97580994    0.06960000
opls_700-31    C    0.93455003    0.95165000    0.95981940    0.06940000
opls_145-32    C    0.41193000    0.54647000    0.23060123    -0.11550000
opls_145-33    C    0.91099005    0.04666000    0.19193985    -0.11730000
opls_145-34    C    0.58806996    0.54647000    0.76940144    -0.11550000
opls_145-35    C    0.08900995    0.04666000    0.80806015    -0.11720000
opls_145-36    C    0.58806996    0.45353000    0.76940144    -0.11710000
opls_145-37    C    0.08900995    0.95334000    0.80806015    -0.11730000
opls_145-38    C    0.41193000    0.45353000    0.23060123    -0.11710000
opls_145-39    C    0.91099005    0.95334000    0.19193985    -0.11730000
opls_145-40    C    0.39607998    0.56832000    0.30370006    -0.16390000
opls_145-41    C    0.89343993    0.06641000    0.19333892    -0.16180000
opls_145-42    C    0.60392002    0.56832000    0.69629994    -0.16640000
opls_145-43    C    0.10655989    0.06641000    0.80666108    -0.16180000
opls_145-44    C    0.60392002    0.43167000    0.69629994    -0.16590000
opls_145-45    C    0.10655989    0.93359000    0.80666108    -0.16180000
opls_145-46    C    0.39607998    0.43167000    0.30370006    -0.16400000
opls_145-47    C    0.89343993    0.93359000    0.19333892    -0.16170000
opls_145-48    C    0.40279004    0.59285000    0.12909108    0.19240000
opls_145-49    C    0.89914992    0.08859000    0.96547977    0.19890000
opls_145-50    C    0.59720992    0.59285000    0.87091159    0.19230000
opls_145-51    C    0.10085008    0.08859000    0.03452023    0.19890000
opls_145-52    C    0.59720992    0.40715000    0.87091159    0.19250000
opls_145-53    C    0.10085008    0.91141000    0.03452023    0.19890000
opls_145-54    C    0.40279004    0.40715000    0.12909108    0.19240000
opls_145-55    C    0.89914992    0.91141000    0.96547977    0.19890000
opls_145-56    C    0.42481991    0.59444000    0.86572915    -0.16820000
opls_145-57    C    0.92311998    0.09147000    0.75507164    -0.16850000
opls_145-58    C    0.57517996    0.59444000    0.13427886    -0.16820000
opls_145-59    C    0.07687997    0.09147000    0.24493103    -0.16850000
opls_145-60    C    0.57517996    0.40556000    0.13427886    -0.16820000
opls_145-61    C    0.07687997    0.90853000    0.24493103    -0.16850000
opls_145-62    C    0.42481991    0.40556000    0.86572915    -0.16820000
opls_145-63    C    0.92311998    0.90853000    0.75507164    -0.16850000
opls_145-64    C    0.44037994    0.57222000    0.78401961    -0.11830000
opls_145-65    C    0.94058001    0.07125000    0.74586019    -0.11710000
opls_145-66    C    0.55962006    0.57222000    0.21598039    -0.11830000
opls_145-67    C    0.05941999    0.07125000    0.25413981    -0.11710000
opls_145-68    C    0.55962006    0.42778000    0.21598039    -0.11830000
opls_145-69    C    0.05941999    0.92875000    0.25413981    -0.11710000
opls_145-70    C    0.44037994    0.42778000    0.78401961    -0.11830000
opls_145-71    C    0.94058001    0.92875000    0.74586019    -0.11710000
opls_700-72    C    0.16039005    0.87912000    0.10157956    0.05400000
opls_700-73    C    0.64583999    0.35572000    0.48592918    0.05400000
opls_700-74    C    0.83960995    0.87912000    0.89842044    0.05400000
opls_700-75    C    0.35416001    0.35572000    0.51407082    0.05400000
opls_700-76    C    0.83960995    0.12088000    0.89842044    0.05400000
opls_700-77    C    0.35416001    0.64428000    0.51407082    0.05400000
opls_700-78    C    0.16039005    0.12088000    0.10157956    0.05400000
opls_700-79    C    0.64583999    0.64428000    0.48592918    0.05400000
opls_145-80    C    0.15289008    0.85383000    0.24620996    -0.12570000
opls_145-81    C    0.63668004    0.33256000    0.67881154    -0.12570000
opls_145-82    C    0.84710992    0.85383000    0.75379004    -0.12570000
opls_145-83    C    0.36331992    0.33256000    0.32119113    -0.12570000
opls_145-84    C    0.84710992    0.14617000    0.75379004    -0.12570000
opls_145-85    C    0.36331992    0.66744000    0.32119113    -0.12570000
opls_145-86    C    0.15289008    0.14617000    0.24620996    -0.12560000
opls_145-87    C    0.63668004    0.66744000    0.67881154    -0.12570000
opls_145-88    C    0.16995999    0.83648000    0.33772101    -0.11650000
opls_145-89    C    0.65101003    0.30937000    0.64189900    -0.11860000
opls_145-90    C    0.83004001    0.83648000    0.66227899    -0.11650000
opls_145-91    C    0.34898997    0.30937000    0.35810100    -0.11860000
opls_145-92    C    0.83004001    0.16352000    0.66227899    -0.11650000
opls_145-93    C    0.34898997    0.69063000    0.35810100    -0.11860000
opls_145-94    C    0.16995999    0.16352000    0.33772101    -0.11650000
opls_145-95    C    0.65101003    0.69063000    0.64189900    -0.11860000
opls_700-96    C    0.19451998    0.84440000    0.28782968    0.12420000
opls_700-97    C    0.67458997    0.30927000    0.41382892    0.12420000
opls_700-98    C    0.80548002    0.84440000    0.71217032    0.12420000
opls_700-99    C    0.32541003    0.30927000    0.58617108    0.12420000
opls_700-100    C    0.80548002    0.15560000    0.71217032    0.12420000
opls_700-101    C    0.32541003    0.69073000    0.58617108    0.12420000
opls_700-102    C    0.19451998    0.15560000    0.28782968    0.12420000
opls_700-103    C    0.67458997    0.69073000    0.41382892    0.12420000
opls_145-104    C    0.20210999    0.86947000    0.14188031    -0.12050000
opls_145-105    C    0.68367996    0.33215000    0.21784938    -0.11820000
opls_145-106    C    0.79788001    0.86947000    0.85811969    -0.12050000
opls_145-107    C    0.31632004    0.33215000    0.78215062    -0.11820000
opls_145-108    C    0.79788001    0.13053000    0.85811969    -0.12050000
opls_145-109    C    0.31632004    0.66785000    0.78215062    -0.11820000
opls_145-110    C    0.20210999    0.13053000    0.14188031    -0.12050000
opls_145-111    C    0.68367996    0.66785000    0.21784938    -0.11820000
opls_145-112    C    0.18511993    0.88676000    0.04905029    -0.11650000
opls_145-113    C    0.66930002    0.35525000    0.25189969    -0.11710000
opls_145-114    C    0.81487990    0.88676000    0.95094971    -0.11550000
opls_145-115    C    0.33069998    0.35525000    0.74810031    -0.11710000
opls_145-116    C    0.81487990    0.11324000    0.95094971    -0.11550000
opls_145-117    C    0.33069998    0.64475000    0.74810031    -0.11710000
opls_145-118    C    0.18511993    0.11324000    0.04905029    -0.11650000
opls_145-119    C    0.66930002    0.64475000    0.25189969    -0.11710000
opls_261-120    C    0.21202993    0.82677000    0.38314012    -0.09530000
opls_261-121    C    0.69017997    0.28638000    0.39796921    -0.09530000
opls_261-122    C    0.78797007    0.82677000    0.61685988    -0.09520000
opls_261-123    C    0.30982003    0.28638000    0.60203079    -0.09530000
opls_261-124    C    0.78797007    0.17323000    0.61685988    -0.09530000
opls_261-125    C    0.30982003    0.71362000    0.60203079    -0.09530000
opls_261-126    C    0.21202993    0.17323000    0.38314012    -0.09530000
opls_261-127    C    0.69017997    0.71362000    0.39796921    -0.09530000
opls_261-128    C    0.22682998    0.81184000    0.45784094    -0.08650000
opls_261-129    C    0.70388002    0.26781000    0.39105929    -0.09530000
opls_261-130    C    0.77317002    0.81184000    0.54215906    -0.08650000
opls_261-131    C    0.29611998    0.26781000    0.60894071    -0.09530000
opls_261-132    C    0.77317002    0.18816000    0.54215906    -0.08650000
opls_261-133    C    0.29611998    0.73219000    0.60894071    -0.09530000
opls_261-134    C    0.22682998    0.18816000    0.45784094    -0.08640000
opls_261-135    C    0.70388002    0.73219000    0.39105929    -0.09530000
opls_700-136    C    0.24442004    0.79351000    0.53660015    -0.00210000
opls_700-137    C    0.72089993    0.24644000    0.39100055    -0.00060000
opls_700-138    C    0.75557996    0.79351000    0.46339985    -0.00210000
opls_700-139    C    0.27910007    0.24644000    0.60899945    -0.00060000
opls_700-140    C    0.75557996    0.20649000    0.46339985    -0.00210000
opls_700-141    C    0.27910007    0.75356000    0.60899945    -0.00170000
opls_700-142    C    0.24442004    0.20649000    0.53660015    -0.00210000
opls_700-143    C    0.72089993    0.75356000    0.39100055    -0.00170000
opls_145-144    C    0.26966999    0.79709000    0.38634944    -0.12960000
opls_716-145    C    0.74727002    0.25010000    0.22604890    0.09570000
opls_145-146    C    0.73033001    0.79709000    0.61365056    -0.12960000
opls_716-147    C    0.25272998    0.25010000    0.77395110    0.09560000
opls_145-148    C    0.73033001    0.20291000    0.61365056    -0.12960000
opls_716-149    C    0.25272998    0.74989000    0.77395110    0.09560000
opls_145-150    C    0.26966999    0.20291000    0.38634944    -0.12950000
opls_716-151    C    0.74727002    0.74989000    0.22604890    0.09560000
opls_145-152    C    0.28680996    0.77736000    0.42262118    -0.12920000
opls_716-153    C    0.76375001    0.23107000    0.25974945    0.09720000
opls_145-154    C    0.71318999    0.77736000    0.57738149    -0.12920000
opls_716-155    C    0.23624999    0.23107000    0.74025055    0.09720000
opls_145-156    C    0.71318999    0.22263000    0.57738149    -0.12910000
opls_716-157    C    0.23624999    0.76893000    0.74025055    0.09570000
opls_145-158    C    0.28680996    0.22263000    0.42262118    -0.12920000
opls_716-159    C    0.76375001    0.76893000    0.25974945    0.09560000
opls_142-160    C    0.14272998    0.89824000    0.01553931    0.07090000
opls_142-161    C    0.63150002    0.38064000    0.52918026    0.07200000
opls_142-162    C    0.85727002    0.89824000    0.98446069    0.07090000
opls_142-163    C    0.36849998    0.38064000    0.47081974    0.07200000
opls_142-164    C    0.85727002    0.10176000    0.98446069    0.07090000
opls_142-165    C    0.36849998    0.61936000    0.47081974    0.07200000
opls_142-166    C    0.14272998    0.10176000    0.01553931    0.07090000
opls_142-167    C    0.63150002    0.61936000    0.52918026    0.07200000
opls_145-168    C    0.43991991    0.50000000    0.87377114    -0.09520000
opls_145-169    C    0.56008009    0.50000000    0.12622886    -0.09520000
opls_145-170    C    0.93987990    0.00000000    0.88145002    -0.07240000
opls_145-171    C    0.06011992    0.00000000    0.11854998    -0.07240000
opls_700-172    C    0.51216000    0.50000000    0.02691077    0.00670000
opls_700-173    C    0.48784000    0.50000000    0.97308923    0.00670000
opls_700-174    C    0.01222004    0.00000000    0.02373883    0.00760000
opls_700-175    C    0.98777996    0.00000000    0.97626117    0.00760000
opls_146-176    H    0.47957995    0.56782000    0.97697939    0.09530000
opls_146-177    H    0.97948002    0.06784000    0.97462981    0.10920000
opls_146-178    H    0.52042005    0.56782000    0.02302061    0.09530000
opls_146-179    H    0.02051998    0.06784000    0.02537019    0.10920000
opls_146-180    H    0.52042005    0.43218000    0.02302061    0.09530000
opls_146-181    H    0.02051998    0.93216000    0.02537019    0.10920000
opls_146-182    H    0.47957995    0.43218000    0.97697939    0.09530000
opls_146-183    H    0.97948002    0.93216000    0.97462981    0.10920000
opls_146-184    H    0.40677000    0.52820000    0.38064101    0.11690000
opls_146-185    H    0.90603994    0.02964000    0.36835107    0.11670000
opls_146-186    H    0.59323000    0.52820000    0.61935899    0.11690000
opls_146-187    H    0.09396006    0.02964000    0.63164893    0.11670000
opls_146-188    H    0.59323000    0.47180000    0.61935899    0.11690000
opls_146-189    H    0.09396006    0.97036000    0.63164893    0.11660000
opls_146-190    H    0.40677000    0.47180000    0.38064101    0.11690000
opls_146-191    H    0.90603994    0.97036000    0.36835107    0.11660000
opls_146-192    H    0.37897006    0.56585000    0.50124955    0.12280000
opls_146-193    H    0.87550990    0.06430000    0.37346142    0.12450000
opls_146-194    H    0.62101994    0.56585000    0.49875045    0.10220000
opls_146-195    H    0.12448988    0.06430000    0.62654125    0.12440000
opls_146-196    H    0.62101994    0.43415000    0.49875045    0.10290000
opls_146-197    H    0.12448988    0.93570000    0.62654125    0.12440000
opls_146-198    H    0.37897006    0.43415000    0.50124955    0.12270000
opls_146-199    H    0.87550990    0.93570000    0.37346142    0.12450000
opls_146-200    H    0.42965002    0.61298000    0.72110142    0.12140000
opls_146-201    H    0.92752001    0.10842000    0.57677007    0.12100000
opls_146-202    H    0.57034994    0.61298000    0.27890125    0.12140000
opls_146-203    H    0.07247999    0.10842000    0.42322993    0.12100000
opls_146-204    H    0.57034994    0.38702000    0.27890125    0.12140000
opls_146-205    H    0.07247999    0.89158000    0.42322993    0.12100000
opls_146-206    H    0.42965002    0.38702000    0.72110142    0.12140000
opls_146-207    H    0.92752001    0.89158000    0.57677007    0.12100000
opls_146-208    H    0.45690006    0.57373000    0.57196943    0.11520000
opls_146-209    H    0.95819006    0.07290000    0.55808017    0.13020000
opls_146-210    H    0.54309994    0.57373000    0.42803057    0.11520000
opls_146-211    H    0.04180994    0.07290000    0.44191983    0.13010000
opls_146-212    H    0.54309994    0.42626000    0.42803057    0.12410000
opls_146-213    H    0.04180994    0.92710000    0.44191983    0.13010000
opls_146-214    H    0.45690006    0.42626000    0.57196943    0.12410000
opls_146-215    H    0.95819006    0.92710000    0.55808017    0.13010000
opls_146-216    H    0.13382994    0.84775000    0.29096958    0.11700000
opls_146-217    H    0.61867999    0.33269000    0.86249045    0.11410000
opls_146-218    H    0.86617006    0.84775000    0.70903042    0.11700000
opls_146-219    H    0.38132001    0.33269000    0.13750955    0.11410000
opls_146-220    H    0.86617006    0.15225000    0.70903042    0.11710000
opls_146-221    H    0.38132001    0.66731000    0.13750955    0.11410000
opls_146-222    H    0.13382994    0.15225000    0.29096958    0.11710000
opls_146-223    H    0.61867999    0.66731000    0.86249045    0.11410000
opls_146-224    H    0.16406991    0.81702000    0.45022081    0.11640000
opls_146-225    H    0.64407007    0.29183000    0.79877928    0.11410000
opls_146-226    H    0.83592991    0.81702000    0.54977919    0.11640000
opls_146-227    H    0.35592993    0.29183000    0.20122072    0.11410000
opls_146-228    H    0.83592991    0.18298000    0.54977919    0.11640000
opls_146-229    H    0.35592993    0.70817000    0.20122072    0.11410000
opls_146-230    H    0.16406991    0.18298000    0.45022081    0.11640000
opls_146-231    H    0.64407007    0.70817000    0.79877928    0.11410000
opls_146-232    H    0.22114993    0.87558000    0.10073051    0.11390000
opls_146-233    H    0.70196009    0.33211000    0.04086945    0.11330000
opls_146-234    H    0.77884990    0.87558000    0.89926949    0.11700000
opls_146-235    H    0.29803991    0.33211000    0.95913055    0.11330000
opls_146-236    H    0.77884990    0.12442000    0.89926949    0.11700000
opls_146-237    H    0.29803991    0.66789000    0.95913055    0.11330000
opls_146-238    H    0.22114993    0.12442000    0.10073051    0.11390000
opls_146-239    H    0.70196009    0.66789000    0.04086945    0.11330000
opls_146-240    H    0.19126002    0.90614000    0.93683885    0.11730000
opls_146-241    H    0.67657992    0.37284000    0.09859986    0.11410000
opls_146-242    H    0.80873998    0.90614000    0.06316115    0.11730000
opls_146-243    H    0.32341990    0.37284000    0.90140014    0.11420000
opls_146-244    H    0.80873998    0.09386000    0.06316115    0.11730000
opls_146-245    H    0.32341990    0.62716000    0.90140014    0.11410000
opls_146-246    H    0.19126002    0.09386000    0.93683885    0.11730000
opls_146-247    H    0.67657992    0.62716000    0.09859986    0.11410000
opls_144-248    H    0.85037991    0.08224000    0.08045998    0.11980000
opls_144-249    H    0.36227994    0.60367000    0.66373947    0.11720000
opls_144-250    H    0.14961991    0.08224000    0.91954002    0.11980000
opls_144-251    H    0.63772006    0.60367000    0.33626053    0.11720000
opls_144-252    H    0.14961991    0.91776000    0.91954002    0.11980000
opls_144-253    H    0.63772006    0.39633000    0.33626053    0.11720000
opls_144-254    H    0.85037991    0.91776000    0.08045998    0.11980000
opls_144-255    H    0.36227994    0.39633000    0.66373947    0.11720000
opls_146-256    H    0.42124990    0.50000000    0.84082086    0.11390000
opls_146-257    H    0.57875010    0.50000000    0.15917914    0.11390000
opls_146-258    H    0.92141004    0.00000000    0.83987035    0.11620000
opls_146-259    H    0.07858996    0.00000000    0.16012965    0.11620000
opls_146-260    H    0.27604002    0.81475000    0.22801935    0.11670000
opls_146-261    H    0.30609000    0.78023000    0.29314028    0.11670000
opls_146-262    H    0.72395998    0.81475000    0.77198065    0.11680000
opls_146-263    H    0.69391000    0.78023000    0.70685972    0.11690000
opls_146-264    H    0.72395998    0.18524000    0.77198065    0.11620000
opls_146-265    H    0.69391000    0.21977000    0.70685972    0.11640000
opls_146-266    H    0.27604002    0.18524000    0.22801935    0.11620000
opls_146-267    H    0.30609000    0.21977000    0.29314028    0.11650000
opls_750-268    N    0.11933007    0.89287000    0.08300982    -0.34830000
opls_750-269    N    0.61225000    0.38362000    0.79315096    -0.34380000
opls_750-270    N    0.88066993    0.89287000    0.91699018    -0.34840000
opls_750-271    N    0.38775000    0.38362000    0.20684904    -0.34380000
opls_750-272    N    0.88066993    0.10713000    0.91699018    -0.34830000
opls_750-273    N    0.38775000    0.61638000    0.20684904    -0.34380000
opls_750-274    N    0.11933007    0.10713000    0.08300982    -0.34840000
opls_750-275    N    0.61225000    0.61638000    0.79315096    -0.34370000
opls_750-276    N    0.75759004    0.27143000    0.03764945    -0.35480000
opls_750-277    N    0.78702003    0.23740000    0.09701923    -0.35480000
opls_750-278    N    0.24240996    0.27143000    0.96235055    -0.35470000
opls_750-279    N    0.21297997    0.23740000    0.90298077    -0.35480000
opls_750-280    N    0.24240996    0.72857000    0.96235055    -0.35480000
opls_750-281    N    0.21297997    0.76260000    0.90298077    -0.35470000
opls_750-282    N    0.75759004    0.72857000    0.03764945    -0.35480000
opls_750-283    N    0.78702003    0.76260000    0.09701923    -0.35470000
opls_202-284    S    0.21145992    0.73220000    0.10163029    0.44320000
opls_202-285    S    0.78852990    0.73220000    0.89836971    0.44330000
opls_202-286    S    0.78852990    0.26780000    0.89836971    0.44330000
opls_202-287    S    0.21145992    0.26780000    0.10163029    0.44320000
