#======================================================================
# Crystal Data Generated By AuToFF
#----------------------------------------------------------------------

data_AuToFF_phase_1

_cell_length_a                         19.1509
_cell_length_b                         19.1509
_cell_length_c                         3.4617
_cell_angle_alpha                      90.00
_cell_angle_beta                       90.00
_cell_angle_gamma                      120.00
_symmetry_space_group_name_H-M_alt     'P 1'
_symmetry_space_group_IT_number        1

loop_
_space_group_symop_operation_xyz
   'x, y, z'

loop_
   _atom_site_label
   _atom_site_type_symbol
   _atom_site_fract_x
   _atom_site_fract_y
   _atom_site_fract_z
   _atom_site_charge
opls_520-0    N    0.70865988    0.29391981    0.50000000    -0.50240000
opls_753-1    N    0.60459996    0.73211007    0.50000000    -0.32540000
opls_520-2    N    0.70608014    0.41473979    0.50000000    -0.50240000
opls_753-3    N    0.26788984    0.87248970    0.50000000    -0.32540000
opls_520-4    N    0.58525968    0.29133979    0.50000000    -0.50240000
opls_753-5    N    0.12750990    0.39539963    0.50000000    -0.32540000
opls_531-6    C    0.74866978    0.37563980    0.50000000    0.31760000
opls_700-7    C    0.58361999    0.16181987    0.50000000    0.00050000
opls_523-8    C    0.49367010    0.37370012    0.50000000    -0.12820000
opls_145-9    C    0.45039978    0.41461981    0.50000000    -0.14300000
opls_700-10    C    0.48975992    0.49956015    0.50000000    0.10480000
opls_145-11    C    0.57491983    0.54197997    0.50000000    -0.12890000
opls_523-12    C    0.61819980    0.50091980    0.50000000    -0.13810000
opls_142-13    C    0.43653997    0.53661012    0.50000000    -0.11130000
opls_141-14    C    0.45542980    0.61534974    0.50000000    0.01320000
opls_700-15    C    0.39153963    0.64062955    0.50000000    0.05640000
opls_145-16    C    0.41530005    0.72332994    0.50000000    -0.19480000
opls_423-17    C    0.53856985    0.67944977    0.50000000    0.20830000
opls_531-18    C    0.62436004    0.37302964    0.50000000    0.31760000
opls_700-19    C    0.83818004    0.42179972    0.50000000    0.00050000
opls_523-20    C    0.62629981    0.11996983    0.50000000    -0.12820000
opls_145-21    C    0.58537986    0.03578016    0.50000000    -0.14300000
opls_700-22    C    0.50044006    0.99019968    0.50000000    0.10480000
opls_145-23    C    0.45802014    0.03294027    0.50000000    -0.12890000
opls_523-24    C    0.49907991    0.11728008    0.50000000    -0.13810000
opls_142-25    C    0.46338990    0.89992988    0.50000000    -0.11130000
opls_141-26    C    0.38465003    0.84008002    0.50000000    0.01320000
opls_700-27    C    0.35937012    0.75091000    0.50000000    0.05640000
opls_145-28    C    0.27667024    0.69196999    0.50000000    -0.19480000
opls_423-29    C    0.32054994    0.85911992    0.50000000    0.20840000
opls_531-30    C    0.62696988    0.25132995    0.50000000    0.31760000
opls_700-31    C    0.57819967    0.41637981    0.50000000    0.00050000
opls_523-32    C    0.88003008    0.50633005    0.50000000    -0.12820000
opls_145-33    C    0.96421984    0.54960003    0.50000000    -0.14300000
opls_700-34    C    0.00980002    0.51024017    0.50000000    0.10480000
opls_145-35    C    0.96706003    0.42507975    0.50000000    -0.12890000
opls_523-36    C    0.88272029    0.38180013    0.50000000    -0.13810000
opls_142-37    C    0.10007013    0.56346001    0.50000000    -0.11130000
opls_141-38    C    0.15991986    0.54456964    0.50000000    0.01320000
opls_700-39    C    0.24908996    0.60845985    0.50000000    0.05640000
opls_145-40    C    0.30803024    0.58470007    0.50000000    -0.19480000
opls_423-41    C    0.14087991    0.46142970    0.50000000    0.20830000
opls_526-42    H    0.46090005    0.30840022    0.50000000    0.10510000
opls_146-43    H    0.38515976    0.37908987    0.50000000    0.10290000
opls_146-44    H    0.61043015    0.60631998    0.50000000    0.22070000
opls_526-45    H    0.68348980    0.53551999    0.50000000    0.10290000
opls_144-46    H    0.37411968    0.49114962    0.50000000    0.21920000
opls_146-47    H    0.47846989    0.76576966    0.50000000    0.22070000
opls_526-48    H    0.69160024    0.15250009    0.50000000    0.10510000
opls_146-49    H    0.62090982    0.00606988    0.50000000    0.10290000
opls_146-50    H    0.39368009    0.00411030    0.50000000    0.22070000
opls_526-51    H    0.46448004    0.14797014    0.50000000    0.10290000
opls_144-52    H    0.50884975    0.88296954    0.50000000    0.21920000
opls_146-53    H    0.23422987    0.71269996    0.50000000    0.22070000
opls_526-54    H    0.84749971    0.53909969    0.50000000    0.10510000
opls_146-55    H    0.99392959    0.61483964    0.50000000    0.10220000
opls_146-56    H    0.99588977    0.38956972    0.50000000    0.22070000
opls_526-57    H    0.85203016    0.31650987    0.50000000    0.10290000
opls_144-58    H    0.11702996    0.62587963    0.50000000    0.21920000
opls_146-59    H    0.28729993    0.52152978    0.50000000    0.22070000
