#======================================================================
# Crystal Data Generated By AuToFF
#----------------------------------------------------------------------

data_AuToFF_phase_1

_cell_length_a                         26.3549
_cell_length_b                         22.2376
_cell_length_c                         5.0527
_cell_angle_alpha                      90.00
_cell_angle_beta                       64.52
_cell_angle_gamma                      90.00
_symmetry_space_group_name_H-M_alt     'P 1'
_symmetry_space_group_IT_number        1

loop_
_space_group_symop_operation_xyz
   'x, y, z'

loop_
   _atom_site_label
   _atom_site_type_symbol
   _atom_site_fract_x
   _atom_site_fract_y
   _atom_site_fract_z
   _atom_site_charge
opls_145-0    C    0.43419995    0.08427978    0.15895966    -0.10870000
opls_700-1    C    0.43466012    0.14701002    0.15804982    0.06780000
opls_145-2    C    0.48440991    0.17680010    0.10739890    -0.09320000
opls_700-3    C    0.53430993    0.14503993    0.02927945    -0.02200000
opls_166-4    C    0.53393001    0.08228001    0.99912962    0.21310000
opls_700-5    C    0.48297989    0.05042990    0.08440066    -0.02270000
opls_700-6    C    0.38338008    0.18115984    0.20300051    0.06570000
opls_700-7    C    0.58554031    0.17819999    0.99715865    0.07190000
opls_145-8    C    0.34626008    0.15799996    0.09705956    -0.12760000
opls_145-9    C    0.30009983    0.19065996    0.11989994    -0.12700000
opls_700-10    C    0.28930012    0.24751007    0.25106002    0.06050000
opls_145-11    C    0.32587021    0.27032998    0.36094948    -0.12030000
opls_145-12    C    0.37229995    0.23774013    0.33658977    -0.12830000
opls_145-13    C    0.57944995    0.22445003    0.19660968    -0.13070000
opls_145-14    C    0.62574021    0.25512016    0.18645889    -0.13000000
opls_700-15    C    0.67961996    0.23968998    0.97924020    0.06100000
opls_145-16    C    0.68577012    0.19431009    0.77605991    -0.13070000
opls_145-17    C    0.63932035    0.16427987    0.78331894    -0.13000000
opls_142-18    C    0.24114988    0.28262987    0.26645064    0.07210000
opls_142-19    C    0.72833012    0.27074999    0.98205962    0.07210000
opls_145-20    C    0.52205986    0.95315007    0.15797089    -0.17330000
opls_700-21    C    0.52477000    0.89065007    0.16312083    0.06780000
opls_145-22    C    0.48562989    0.85711992    0.10858937    -0.09800000
opls_700-23    C    0.44267989    0.88489001    0.06318923    -0.02320000
opls_166-24    C    0.43953998    0.94813019    0.07084070    0.19300000
opls_700-25    C    0.48112979    0.98324010    0.10195079    -0.02330000
opls_700-26    C    0.56991008    0.85971013    0.21061909    0.06760000
opls_700-27    C    0.40176992    0.84679012    0.00974081    0.06960000
opls_145-28    C    0.62332999    0.88532980    0.11357049    -0.12670000
opls_145-29    C    0.66630995    0.85467002    0.14124072    -0.12700000
opls_700-30    C    0.65720001    0.79742014    0.26813002    0.05900000
opls_145-31    C    0.60343014    0.77247005    0.37226005    -0.12760000
opls_145-32    C    0.56049026    0.80311005    0.34380933    -0.12670000
opls_145-33    C    0.38759013    0.79005019    0.14051065    -0.12470000
opls_145-34    C    0.34745012    0.75520020    0.10612073    -0.13070000
opls_700-35    C    0.31950008    0.77669982    0.94478012    0.06160000
opls_145-36    C    0.33527027    0.83223999    0.80357887    -0.13000000
opls_145-37    C    0.37641007    0.86633989    0.83145957    -0.13240000
opls_142-38    C    0.70355989    0.76288988    0.27785987    0.07210000
opls_142-39    C    0.27212002    0.74334011    0.93802974    0.07210000
opls_181-40    C    0.34131987    0.96753022    0.28591035    -0.19930000
opls_181-41    C    0.60205002    0.02298000    0.61945050    -0.19930000
opls_145-42    C    0.02719019    0.45319999    0.08545959    -0.16890000
opls_700-43    C    0.03016980    0.39065007    0.07809095    0.06830000
opls_145-44    C    0.99076023    0.35850002    0.01942901    -0.10870000
opls_700-45    C    0.94748008    0.38744019    0.98196974    -0.02200000
opls_166-46    C    0.94469018    0.45060978    0.99743051    0.21280000
opls_700-47    C    0.98633986    0.48451991    0.03385059    -0.02370000
opls_700-48    C    0.07552987    0.35846989    0.11845953    0.06750000
opls_700-49    C    0.90564012    0.35043980    0.93043966    0.07230000
opls_145-50    C    0.12776999    0.38543008    0.04401892    -0.11430000
opls_145-51    C    0.17084021    0.35441010    0.07036933    -0.16460000
opls_145-52    C    0.16277996    0.29487984    0.16918938    0.21230000
opls_145-53    C    0.11069990    0.26751988    0.24323975    -0.19940000
opls_145-54    C    0.06763023    0.29927016    0.22221906    -0.13430000
opls_145-55    C    0.89052016    0.29397012    0.06309935    -0.12400000
opls_145-56    C    0.84979996    0.25968000    0.03089963    -0.17990000
opls_145-57    C    0.82209995    0.28243021    0.87110028    0.19730000
opls_145-58    C    0.83837021    0.33755981    0.72731857    -0.16530000
opls_145-59    C    0.88033004    0.37071986    0.75357909    -0.11790000
opls_145-60    C    0.94036999    0.58653991    0.10190037    -0.10870000
opls_700-61    C    0.94265004    0.64908983    0.08469006    0.06830000
opls_145-62    C    0.99359984    0.67795985    0.01585102    -0.09790000
opls_700-63    C    0.04278012    0.64520002    0.94321914    -0.02120000
opls_166-64    C    0.04057003    0.58235016    0.92482055    0.15920000
opls_700-65    C    0.98885998    0.55172995    0.02017004    -0.02270000
opls_700-66    C    0.89226008    0.68487022    0.12718966    0.06660000
opls_700-67    C    0.09462011    0.67764012    0.90689991    0.07150000
opls_145-68    C    0.83875013    0.67090019    0.34321081    -0.11790000
opls_145-69    C    0.79228010    0.70366002    0.36862945    -0.17190000
opls_145-70    C    0.79831005    0.75092996    0.17365091    0.19500000
opls_145-71    C    0.85208001    0.76599003    0.96204963    -0.16530000
opls_145-72    C    0.89823013    0.73329001    0.93923994    -0.12760000
opls_145-73    C    0.08910005    0.72571995    0.09634045    -0.13240000
opls_145-74    C    0.13554998    0.75664011    0.08262044    -0.13980000
opls_145-75    C    0.18913000    0.73850011    0.88336015    0.21010000
opls_145-76    C    0.19527019    0.69108987    0.69090945    -0.15840000
opls_145-77    C    0.14833014    0.66143019    0.70086950    -0.12760000
opls_181-78    C    0.10664021    0.52272997    0.54080926    -0.19930000
opls_181-79    C    0.84692000    0.47166016    0.21275887    -0.19910000
opls_179-80    O    0.39510014    0.97658021    0.03825950    -0.21060000
opls_179-81    O    0.58583992    0.05289015    0.89861046    -0.21050000
opls_179-82    O    0.09186007    0.55123979    0.82176041    -0.21260000
opls_179-83    O    0.90062022    0.48042010    0.96600032    -0.21080000
opls_750-84    N    0.20698997    0.25969979    0.17125024    -0.30630000
opls_750-85    N    0.77830027    0.24870984    0.84989981    -0.30040000
opls_750-86    N    0.75339997    0.78603986    0.17850926    -0.29500000
opls_750-87    N    0.23617014    0.77101980    0.87145983    -0.29380000
opls_146-88    H    0.39412004    0.06157994    0.22326044    0.10940000
opls_146-89    H    0.48498984    0.22584991    0.11651049    0.10450000
opls_146-90    H    0.35469004    0.11418004    0.98859077    0.10010000
opls_146-91    H    0.27160992    0.17286982    0.03314026    0.10870000
opls_146-92    H    0.31758987    0.31446019    0.46678082    0.10540000
opls_146-93    H    0.40024982    0.25628980    0.42496087    0.09980000
opls_146-94    H    0.53774010    0.23561985    0.36641951    0.10510000
opls_146-95    H    0.62048992    0.29062983    0.34624070    0.08480000
opls_146-96    H    0.72786000    0.18283987    0.61111939    0.10500000
opls_146-97    H    0.64500019    0.12976985    0.61924003    0.10570000
opls_144-98    H    0.23555003    0.32871983    0.36306076    0.04380000
opls_144-99    H    0.71957013    0.31312012    0.11346964    0.04380000
opls_146-100    H    0.55257987    0.97946991    0.20177058    0.10530000
opls_146-101    H    0.48942999    0.80823020    0.09470931    0.10590000
opls_146-102    H    0.63162013    0.92930982    0.00659911    0.09230000
opls_146-103    H    0.70836009    0.87416987    0.05883952    0.10570000
opls_146-104    H    0.59554998    0.72803990    0.47507027    0.10730000
opls_146-105    H    0.51876001    0.78282998    0.42673013    0.10610000
opls_146-106    H    0.40713997    0.77351018    0.27853951    0.10730000
opls_146-107    H    0.33584999    0.71153002    0.21538974    0.10540000
opls_146-108    H    0.31387024    0.84861991    0.67385919    0.08480000
opls_146-109    H    0.38843021    0.90950013    0.71834948    0.10570000
opls_144-110    H    0.69402005    0.71577014    0.36167078    0.04380000
opls_144-111    H    0.26704029    0.69528996    0.00944923    0.04360000
opls_185-112    H    0.33045011    0.91948996    0.32317889    0.09760000
opls_185-113    H    0.30970987    0.99082995    0.23737070    0.11460000
opls_185-114    H    0.34145996    0.98657004    0.48795936    0.07160000
opls_185-115    H    0.60648995    0.05579019    0.44674013    0.08020000
opls_185-116    H    0.57109002    0.98866020    0.63055937    0.09480000
opls_185-117    H    0.64265991    0.00133018    0.56425035    0.11360000
opls_146-118    H    0.05754990    0.47861010    0.13422067    0.10430000
opls_146-119    H    0.99433996    0.30971013    0.99682103    0.10430000
opls_146-120    H    0.13526994    0.43131003    0.95828090    0.10680000
opls_146-121    H    0.21181999    0.37572984    0.00486054    0.10590000
opls_146-122    H    0.10406017    0.22125994    0.32313942    0.10480000
opls_146-123    H    0.02693012    0.27752995    0.28614055    0.10530000
opls_146-124    H    0.91012013    0.27696019    0.20001885    0.10460000
opls_146-125    H    0.83749000    0.21627019    0.14112891    0.10580000
opls_146-126    H    0.81778017    0.35429003    0.59443965    0.10200000
opls_146-127    H    0.89310033    0.41363007    0.63873920    0.10570000
opls_146-128    H    0.89963022    0.56488020    0.17353910    0.10960000
opls_146-129    H    0.99511977    0.72701011    0.01667098    0.10530000
opls_146-130    H    0.83361013    0.63418984    0.49688022    0.10200000
opls_146-131    H    0.75102001    0.69284995    0.54370980    0.09980000
opls_146-132    H    0.85698999    0.80282000    0.80966934    0.10500000
opls_146-133    H    0.93983009    0.74452999    0.76838872    0.04590000
opls_146-134    H    0.04739977    0.73855002    0.26112093    0.09980000
opls_146-135    H    0.13077003    0.79354022    0.23427066    0.10580000
opls_146-136    H    0.23725004    0.67795985    0.53022875    0.12580000
opls_146-137    H    0.15381990    0.62533007    0.54456045    0.10590000
opls_185-138    H    0.11129013    0.55648991    0.37145983    0.07600000
opls_185-139    H    0.07475017    0.48960994    0.55185893    0.09500000
opls_185-140    H    0.14689998    0.49979000    0.47988038    0.11200000
opls_185-141    H    0.83508009    0.42376021    0.24560096    0.09740000
opls_185-142    H    0.81557991    0.49646005    0.16747931    0.11030000
opls_185-143    H    0.84734992    0.48915980    0.41703974    0.07120000
