#======================================================================
# Crystal Data Generated By AuToFF
#----------------------------------------------------------------------

data_AuToFF_phase_1

_cell_length_a                         22.4763
_cell_length_b                         22.4763
_cell_length_c                         3.4164
_cell_angle_alpha                      90.00
_cell_angle_beta                       90.00
_cell_angle_gamma                      120.00
_symmetry_space_group_name_H-M_alt     'P 1'
_symmetry_space_group_IT_number        1

loop_
_space_group_symop_operation_xyz
   'x, y, z'

loop_
   _atom_site_label
   _atom_site_type_symbol
   _atom_site_fract_x
   _atom_site_fract_y
   _atom_site_fract_z
   _atom_site_charge
opls_145-0    C    0.40772001    0.00212021    0.05864946    -0.12730000
opls_145-1    C    0.49940986    0.97979969    0.02843051    -0.13060000
opls_700-2    C    0.47954995    0.03081009    0.04116907    0.05320000
opls_142-3    C    0.53307021    0.10499023    0.03652968    0.02180000
opls_145-4    C    0.88414996    0.38479018    0.04080026    -0.12500000
opls_145-5    C    0.95419002    0.40638015    0.04176033    -0.13040000
opls_700-6    C    0.00692998    0.47655978    0.04000995    0.05300000
opls_145-7    C    0.98210986    0.52284993    0.03760098    -0.12880000
opls_145-8    C    0.91177008    0.50097996    0.03717949    -0.18210000
opls_700-9    C    0.85887990    0.43071967    0.03852886    0.05910000
opls_142-10    C    0.08105020    0.49573004    0.04099930    0.02240000
opls_302-11    C    0.26575018    0.62234004    0.03960895    0.29400000
opls_145-12    C    0.36519999    0.43902995    0.04104028    -0.11570000
opls_145-13    C    0.38668012    0.39079016    0.04161105    -0.12560000
opls_700-14    C    0.45679990    0.40823014    0.04070952    0.06250000
opls_145-15    C    0.50340986    0.47932988    0.03933966    -0.12320000
opls_145-16    C    0.48168994    0.52755015    0.03900012    -0.12840000
opls_700-17    C    0.41154968    0.51012969    0.03964992    0.05980000
opls_142-18    C    0.39215006    0.56398006    0.03909964    -0.04700000
opls_142-19    C    0.47511993    0.35346994    0.04135054    -0.04700000
opls_302-20    C    0.59851007    0.29192989    0.03995141    0.31580000
opls_142-21    C    0.78465981    0.41229999    0.03626039    0.03120000
opls_145-22    C    0.36169003    0.93141965    0.06260098    -0.13060000
opls_700-23    C    0.38152017    0.88033989    0.04891992    0.05920000
opls_145-24    C    0.45339018    0.90910992    0.03208933    -0.12790000
opls_142-25    C    0.32689982    0.80600975    0.04843110    0.02240000
opls_238-26    N    0.27195986    0.68650992    0.03724974    -0.20710000
opls_238-27    N    0.32495988    0.61614997    0.03914940    -0.20340000
opls_238-28    N    0.20093986    0.56256008    0.03964114    -0.20340000
opls_750-29    N    0.32975976    0.55637977    0.03883035    -0.17320000
opls_750-30    N    0.33380991    0.75054983    0.04041096    -0.18190000
opls_750-31    N    0.13595989    0.55745965    0.03635991    -0.17340000
opls_238-32    N    0.58878977    0.22500995    0.03902061    -0.20330000
opls_238-33    N    0.53995019    0.29910994    0.04094954    -0.20340000
opls_238-34    N    0.66406002    0.34882006    0.03690142    -0.20970000
opls_750-35    N    0.53673018    0.35972011    0.03878937    -0.17270000
opls_750-36    N    0.52741005    0.16114009    0.04265016    -0.18480000
opls_750-37    N    0.72873981    0.35022977    0.03785856    -0.17670000
opls_146-38    H    0.38833023    0.03760021    0.06887074    0.12140000
opls_146-39    H    0.55374987    0.99612999    0.01450064    0.11440000
opls_144-40    H    0.58465031    0.11028022    0.02576982    0.05320000
opls_146-41    H    0.84631006    0.33045998    0.04202084    0.11760000
opls_146-42    H    0.96794004    0.36641981    0.04373024    0.11530000
opls_146-43    H    0.02003988    0.57729007    0.03714144    0.11380000
opls_146-44    H    0.89805005    0.54088995    0.03554033    0.11470000
opls_144-45    H    0.08576013    0.44896006    0.04365999    0.03640000
opls_910-46    H    0.22525017    0.68717008    0.05055029    0.26800000
opls_910-47    H    0.36970998    0.66266000    0.03964114    0.23850000
opls_910-48    H    0.20283976    0.51777982    0.04029973    0.24560000
opls_146-49    H    0.31094006    0.42264983    0.04166081    0.11740000
opls_146-50    H    0.34690011    0.33706001    0.04258869    0.11830000
opls_146-51    H    0.55775009    0.49573980    0.03878937    0.11450000
opls_146-52    H    0.52148993    0.58125975    0.03792003    0.11700000
opls_144-53    H    0.43814010    0.61574977    0.03847032    0.06480000
opls_144-54    H    0.42835008    0.30218006    0.04303946    0.04050000
opls_910-55    H    0.63422998    0.22462979    0.03741951    0.23550000
opls_910-56    H    0.49428021    0.25332018    0.04310971    0.24330000
opls_910-57    H    0.66640992    0.39639970    0.03996897    0.27200000
opls_144-58    H    0.78048028    0.45932017    0.03518909    0.05650000
opls_146-59    H    0.30734998    0.91476981    0.07641084    0.11510000
opls_146-60    H    0.47320003    0.87397977    0.02115970    0.12140000
opls_144-61    H    0.27536969    0.80039969    0.05804941    0.06580000
opls_401-62    Cl    0.14567987    0.71104980    0.32410139    -0.16370000
opls_401-63    Cl    0.73277002    0.53319976    0.09346973    -0.14910000
