#======================================================================
# Crystal Data Generated By AuToFF
#----------------------------------------------------------------------

data_AuToFF_phase_1

_cell_length_a                         28.3805
_cell_length_b                         28.3805
_cell_length_c                         6.0482
_cell_angle_alpha                      90.00
_cell_angle_beta                       90.00
_cell_angle_gamma                      120.00
_symmetry_space_group_name_H-M_alt     'P 1'
_symmetry_space_group_IT_number        1

loop_
_space_group_symop_operation_xyz
   'x, y, z'

loop_
   _atom_site_label
   _atom_site_type_symbol
   _atom_site_fract_x
   _atom_site_fract_y
   _atom_site_fract_z
   _atom_site_charge
opls_145-0    C    0.03923018    0.88073022    0.57784961    -0.18660000
opls_642-1    C    0.28751026    0.62687020    0.50228002    0.54960000
opls_142-2    C    0.17962009    0.78893029    0.84828048    0.01430000
opls_700-3    C    0.22336999    0.78408006    0.76544922    0.06710000
opls_142-4    C    0.71302996    0.87830002    0.26516980    0.01440000
opls_700-5    C    0.76683991    0.91873011    0.31436956    0.06710000
opls_145-6    C    0.80183032    0.95580032    0.15571079    -0.10920000
opls_145-7    C    0.78809018    0.92264008    0.52720975    -0.11630000
opls_145-8    C    0.21832017    0.75881013    0.56051057    -0.11630000
opls_145-9    C    0.85550013    0.99311016    0.20411031    -0.18370000
opls_166-10    C    0.87658001    0.99536012    0.41479944    0.32510000
opls_145-11    C    0.27287000    0.80350009    0.87877054    -0.11590000
opls_642-12    C    0.96462020    0.01352009    0.46088919    0.56130000
opls_145-13    C    0.25991990    0.75241993    0.47311928    -0.19660000
opls_145-14    C    0.31462025    0.79715016    0.79336993    -0.17850000
opls_166-15    C    0.30849017    0.77090010    0.59073939    0.32510000
opls_145-16    C    0.11927010    0.15850002    0.57784961    -0.18660000
opls_642-17    C    0.37312999    0.66063992    0.50228002    0.54960000
opls_142-18    C    0.21106991    0.39069005    0.84828048    0.01430000
opls_700-19    C    0.21591989    0.43928997    0.76544922    0.06710000
opls_142-20    C    0.12170010    0.83473017    0.26516980    0.01440000
opls_700-21    C    0.08127014    0.84811030    0.31436956    0.06710000
opls_145-22    C    0.04419997    0.84603000    0.15571079    -0.10920000
opls_145-23    C    0.07735989    0.86545003    0.52720975    -0.11630000
opls_145-24    C    0.24118991    0.45950990    0.56051057    -0.11630000
opls_145-25    C    0.00688994    0.86239001    0.20411031    -0.18370000
opls_166-26    C    0.00463992    0.88122009    0.41479944    0.32510000
opls_145-27    C    0.19650010    0.46937025    0.87877054    -0.11590000
opls_642-28    C    0.98648015    0.95110022    0.46088919    0.56130000
opls_145-29    C    0.24757988    0.50749993    0.47311928    -0.19660000
opls_145-30    C    0.20285022    0.51747014    0.79336993    -0.17850000
opls_166-31    C    0.22910013    0.53758997    0.59073939    0.32510000
opls_145-32    C    0.84149993    0.96077016    0.57784961    -0.18660000
opls_642-33    C    0.33936031    0.71249028    0.50228002    0.54960000
opls_142-34    C    0.60931020    0.82038007    0.84828048    0.01430000
opls_700-35    C    0.56071011    0.77662997    0.76544922    0.06710000
opls_142-36    C    0.16527014    0.28697022    0.26516980    0.01440000
opls_700-37    C    0.15189016    0.23316000    0.31436956    0.06710000
opls_145-38    C    0.15396991    0.19817009    0.15571079    -0.10920000
opls_145-39    C    0.13454993    0.21190989    0.52720975    -0.11630000
opls_145-40    C    0.54048992    0.78167997    0.56051057    -0.11630000
opls_145-41    C    0.13760993    0.14449983    0.20411031    -0.18370000
opls_166-42    C    0.11878027    0.12342020    0.41479944    0.32510000
opls_145-43    C    0.53063010    0.72713007    0.87877054    -0.11590000
opls_642-44    C    0.04890021    0.03538009    0.46088919    0.56130000
opls_145-45    C    0.49250021    0.74008014    0.47311928    -0.19660000
opls_145-46    C    0.48253009    0.68538011    0.79336993    -0.17850000
opls_166-47    C    0.46241006    0.69150993    0.59073939    0.32510000
opls_145-48    C    0.96077003    0.11927018    0.07784961    -0.18660000
opls_642-49    C    0.71248995    0.37313021    0.00228002    0.54960000
opls_142-50    C    0.82038011    0.21107012    0.34828048    0.01430000
opls_700-51    C    0.77663001    0.21591994    0.26544922    0.06710000
opls_142-52    C    0.28697004    0.12169998    0.76516980    0.01440000
opls_700-53    C    0.23316009    0.08126989    0.81436956    0.06710000
opls_145-54    C    0.19816988    0.04420009    0.65571079    -0.10920000
opls_145-55    C    0.21190982    0.07735992    0.02720975    -0.11630000
opls_145-56    C    0.78167983    0.24118987    0.06051057    -0.11630000
opls_145-57    C    0.14449987    0.00688984    0.70411031    -0.18370000
opls_166-58    C    0.12341999    0.00463988    0.91479944    0.32510000
opls_145-59    C    0.72713000    0.19649991    0.37877054    -0.11590000
opls_642-60    C    0.03538001    0.98648031    0.96088919    0.56130000
opls_145-61    C    0.74008010    0.24758007    0.97311928    -0.19660000
opls_145-62    C    0.68537975    0.20284984    0.29336993    -0.17850000
opls_166-63    C    0.69150983    0.22909990    0.09073939    0.32510000
opls_145-64    C    0.88072990    0.84149998    0.07784961    -0.18660000
opls_642-65    C    0.62687001    0.33936008    0.00228002    0.54960000
opls_142-66    C    0.78893009    0.60930995    0.34828048    0.01430000
opls_700-67    C    0.78408011    0.56071003    0.26544922    0.06710000
opls_142-68    C    0.87829990    0.16526983    0.76516980    0.01440000
opls_700-69    C    0.91873006    0.15189011    0.81436956    0.06710000
opls_145-70    C    0.95580003    0.15397000    0.65571079    -0.10910000
opls_145-71    C    0.92264011    0.13454997    0.02720975    -0.11630000
opls_145-72    C    0.75881009    0.54049010    0.06051057    -0.11630000
opls_145-73    C    0.99311006    0.13760999    0.70411031    -0.18370000
opls_166-74    C    0.99536008    0.11877991    0.91479944    0.32510000
opls_145-75    C    0.80350010    0.53063016    0.37877054    -0.11590000
opls_642-76    C    0.01352005    0.04890019    0.96088919    0.56130000
opls_145-77    C    0.75242012    0.49250007    0.97311928    -0.19660000
opls_145-78    C    0.79714999    0.48253027    0.29336993    -0.17850000
opls_166-79    C    0.77089987    0.46241003    0.09073939    0.32510000
opls_145-80    C    0.15850007    0.03922984    0.07784961    -0.18660000
opls_642-81    C    0.66063990    0.28751013    0.00228002    0.54960000
opls_142-82    C    0.39068980    0.17961993    0.34828048    0.01430000
opls_700-83    C    0.43928989    0.22337003    0.26544922    0.06710000
opls_142-84    C    0.83473007    0.71303019    0.76516980    0.01440000
opls_700-85    C    0.84810984    0.76684000    0.81436956    0.06710000
opls_145-86    C    0.84603029    0.80183032    0.65571079    -0.10920000
opls_145-87    C    0.86545007    0.78809011    0.02720975    -0.11630000
opls_145-88    C    0.45951008    0.21832003    0.06051057    -0.11630000
opls_145-89    C    0.86239007    0.85550017    0.70411031    -0.18370000
opls_166-90    C    0.88121993    0.87658021    0.91479944    0.32520000
opls_145-91    C    0.46936990    0.27286993    0.37877054    -0.11580000
opls_642-92    C    0.95110000    0.96462032    0.96088919    0.56130000
opls_145-93    C    0.50749979    0.25991986    0.97311928    -0.19660000
opls_145-94    C    0.51746991    0.31461989    0.29336993    -0.17850000
opls_166-95    C    0.53758994    0.30849007    0.09073939    0.32510000
opls_180-96    O    0.23531010    0.58516012    0.51323038    -0.26860000
opls_180-97    O    0.92939999    0.03261016    0.45979961    -0.27000000
opls_180-98    O    0.41484023    0.65015015    0.51323038    -0.26860000
opls_180-99    O    0.96739007    0.89678996    0.45979961    -0.27010000
opls_180-100    O    0.34985022    0.76469013    0.51323038    -0.26860000
opls_180-101    O    0.10320995    0.07059988    0.45979961    -0.27010000
opls_180-102    O    0.76468990    0.41483988    0.01323038    -0.26850000
opls_180-103    O    0.07060022    0.96739025    0.95979961    -0.27010000
opls_180-104    O    0.58515997    0.34985025    0.01323038    -0.26860000
opls_180-105    O    0.03260993    0.10321004    0.95979961    -0.27010000
opls_180-106    O    0.65014978    0.23530987    0.01323038    -0.26860000
opls_180-107    O    0.89679005    0.92940012    0.95979961    -0.27010000
opls_641-108    N    0.70828012    0.32647021    0.00376972    -0.30480000
opls_750-109    N    0.19113011    0.36682991    0.03780960    -0.14530000
opls_750-110    N    0.68515997    0.87511021    0.08849079    -0.14500000
opls_641-111    N    0.96302007    0.01419996    0.95987071    -0.30700000
opls_641-112    N    0.67353016    0.38181024    0.00376972    -0.30480000
opls_750-113    N    0.63317017    0.82430020    0.03780960    -0.14530000
opls_750-114    N    0.12489015    0.81005019    0.08849079    -0.14500000
opls_641-115    N    0.98579994    0.94882016    0.95987071    -0.30710000
opls_641-116    N    0.61818992    0.29171995    0.00376972    -0.30480000
opls_750-117    N    0.17570027    0.80887029    0.03780960    -0.14530000
opls_750-118    N    0.18995008    0.31484000    0.08849079    -0.14500000
opls_641-119    N    0.05117999    0.03697988    0.95987071    -0.30710000
opls_641-120    N    0.29172008    0.67353019    0.50376972    -0.30480000
opls_750-121    N    0.80886989    0.63317009    0.53780960    -0.14530000
opls_750-122    N    0.31484023    0.12489020    0.58849079    -0.14500000
opls_641-123    N    0.03697993    0.98580004    0.45987071    -0.30710000
opls_641-124    N    0.32647004    0.61819016    0.50376972    -0.30480000
opls_750-125    N    0.36683003    0.17570020    0.53780960    -0.14530000
opls_750-126    N    0.87511006    0.18995021    0.58849079    -0.14500000
opls_641-127    N    0.01420006    0.05117984    0.45987071    -0.30710000
opls_641-128    N    0.38181008    0.70828005    0.50376972    -0.30480000
opls_750-129    N    0.82429993    0.19113012    0.53780960    -0.14530000
opls_750-130    N    0.81004992    0.68516000    0.58849079    -0.14500000
opls_641-131    N    0.94882001    0.96302012    0.45987071    -0.30710000
opls_146-132    H    0.18758997    0.54011009    0.88525016    0.11920000
opls_144-133    H    0.22531021    0.36665008    0.74439007    0.02730000
opls_144-134    H    0.68911025    0.84410025    0.38841970    0.02730000
opls_146-135    H    0.78758987    0.95539996    0.98673986    0.08820000
opls_146-136    H    0.76217018    0.89465027    0.65763037    0.08810000
opls_146-137    H    0.88181999    0.02045998    0.07318045    0.06920000
opls_146-138    H    0.85698015    0.96369023    0.74619060    0.06430000
opls_146-139    H    0.18030002    0.74309012    0.46580966    0.08810000
opls_146-140    H    0.27966018    0.82420012    0.03885950    0.06780000
opls_146-141    H    0.25437007    0.73176018    0.31327998    0.08040000
opls_146-142    H    0.45989013    0.64747990    0.88525016    0.11920000
opls_144-143    H    0.63335016    0.85866029    0.74439007    0.02730000
opls_144-144    H    0.15590011    0.84500999    0.38841970    0.02730000
opls_146-145    H    0.04460019    0.83219011    0.98673986    0.08820000
opls_146-146    H    0.10535008    0.86752016    0.65763037    0.08810000
opls_146-147    H    0.97954007    0.86136024    0.07318045    0.06920000
opls_146-148    H    0.03631015    0.89329012    0.74619060    0.06430000
opls_146-149    H    0.25691022    0.43721008    0.46580966    0.08810000
opls_146-150    H    0.17579996    0.45545997    0.03885950    0.06780000
opls_146-151    H    0.26824007    0.52261005    0.31327998    0.08040000
opls_146-152    H    0.35251990    0.81241001    0.88525016    0.11920000
opls_144-153    H    0.14134019    0.77469004    0.74439007    0.02730000
opls_144-154    H    0.15499019    0.31089017    0.38841970    0.02730000
opls_146-155    H    0.16780994    0.21240993    0.98673986    0.08820000
opls_146-156    H    0.13247994    0.23782998    0.65763037    0.08810000
opls_146-157    H    0.13864014    0.11818019    0.07318045    0.06920000
opls_146-158    H    0.10670990    0.14302006    0.74619060    0.06430000
opls_146-159    H    0.56278997    0.81970020    0.46580966    0.08810000
opls_146-160    H    0.54454006    0.72034032    0.03885950    0.06780000
opls_146-161    H    0.47739006    0.74563018    0.31327998    0.08040000
opls_146-162    H    0.81241003    0.45988991    0.38525016    0.11920000
opls_144-163    H    0.77468979    0.63334992    0.24439007    0.02730000
opls_144-164    H    0.31088995    0.15590016    0.88841970    0.02730000
opls_146-165    H    0.21241013    0.04460004    0.48673986    0.08820000
opls_146-166    H    0.23783002    0.10535014    0.15763037    0.08810000
opls_146-167    H    0.11818001    0.97954002    0.57318045    0.06920000
opls_146-168    H    0.14302005    0.03631018    0.24619060    0.06430000
opls_146-169    H    0.81969998    0.25690988    0.96580966    0.08810000
opls_146-170    H    0.72033982    0.17579988    0.53885950    0.06780000
opls_146-171    H    0.74563013    0.26824023    0.81327998    0.08040000
opls_146-172    H    0.54010987    0.35252010    0.38525016    0.11920000
opls_144-173    H    0.36665005    0.14134012    0.24439007    0.02730000
opls_144-174    H    0.84409989    0.15499001    0.88841970    0.02730000
opls_146-175    H    0.95539981    0.16780989    0.48673986    0.08820000
opls_146-176    H    0.89464992    0.13247984    0.15763037    0.08810000
opls_146-177    H    0.02046013    0.13864017    0.57318045    0.06920000
opls_146-178    H    0.96368985    0.10670988    0.24619060    0.06430000
opls_146-179    H    0.74308978    0.56278992    0.96580966    0.08810000
opls_146-180    H    0.82420004    0.54454003    0.53885950    0.06780000
opls_146-181    H    0.73175993    0.47738995    0.81327998    0.08040000
opls_146-182    H    0.64748010    0.18758999    0.38525016    0.11920000
opls_144-183    H    0.85865981    0.22530996    0.24439007    0.02730000
opls_144-184    H    0.84501001    0.68911024    0.88841970    0.02730000
opls_146-185    H    0.83219006    0.78759007    0.48673986    0.08820000
opls_146-186    H    0.86752006    0.76217002    0.15763037    0.08810000
opls_146-187    H    0.86136006    0.88182021    0.57318045    0.06920000
opls_146-188    H    0.89329010    0.85697994    0.24619060    0.06430000
opls_146-189    H    0.43721023    0.18030021    0.96580966    0.08810000
opls_146-190    H    0.45546014    0.27966009    0.53885950    0.06780000
opls_146-191    H    0.52261014    0.25437023    0.81327998    0.08040000
