#======================================================================
# Crystal Data Generated By AuToFF
#----------------------------------------------------------------------

data_AuToFF_phase_1

_cell_length_a                         37.9400
_cell_length_b                         37.9400
_cell_length_c                         6.4100
_cell_angle_alpha                      90.00
_cell_angle_beta                       90.00
_cell_angle_gamma                      120.00
_symmetry_space_group_name_H-M_alt     'P 1'
_symmetry_space_group_IT_number        1

loop_
_space_group_symop_operation_xyz
   'x, y, z'

loop_
   _atom_site_label
   _atom_site_type_symbol
   _atom_site_fract_x
   _atom_site_fract_y
   _atom_site_fract_z
   _atom_site_charge
opls_142-0    C    0.07785996    0.88980004    0.50000000    0.01400000
opls_145-1    C    0.98770013    0.95862008    0.50000000    -0.17230000
opls_700-2    C    0.02959005    0.98750008    0.50000000    -0.03350000
opls_234-3    C    0.06191012    0.97565998    0.50000000    0.47170000
opls_700-4    C    0.11151017    0.88086009    0.50000000    0.00640000
opls_521-5    C    0.10275017    0.84039018    0.50000000    0.08490000
opls_523-6    C    0.15244011    0.91186018    0.50000000    -0.11480000
opls_522-7    C    0.18346007    0.90217001    0.50000000    -0.16030000
opls_521-8    C    0.17344016    0.86107009    0.50000000    0.16310000
opls_142-9    C    0.28730012    0.80245001    0.50000000    0.01400000
opls_145-10    C    0.35281993    0.70911008    0.50000000    -0.16840000
opls_700-11    C    0.30999997    0.68647016    0.50000000    -0.03330000
opls_234-12    C    0.28413991    0.70610007    0.50000000    0.47000000
opls_700-13    C    0.25869000    0.81815017    0.50000000    0.00610000
opls_523-14    C    0.27353997    0.86015004    0.50000000    -0.11260000
opls_521-15    C    0.21642006    0.79185014    0.50000000    0.08530000
opls_522-16    C    0.24662010    0.87521015    0.50000000    -0.16140000
opls_521-17    C    0.20435023    0.84788021    0.50000000    0.16310000
opls_142-18    C    0.11020004    0.18806008    0.50000000    0.01400000
opls_145-19    C    0.04137999    0.02907995    0.50000000    -0.17230000
opls_700-20    C    0.01249991    0.04208997    0.50000000    -0.03350000
opls_234-21    C    0.02434013    0.08625011    0.50000000    0.47170000
opls_700-22    C    0.11914002    0.23065009    0.50000000    0.00640000
opls_521-23    C    0.15960985    0.26235992    0.50000000    0.08490000
opls_523-24    C    0.08814007    0.24058009    0.50000000    -0.11480000
opls_522-25    C    0.09783010    0.28129014    0.50000000    -0.16030000
opls_521-26    C    0.13893011    0.31236997    0.50000000    0.16310000
opls_142-27    C    0.19754999    0.48485011    0.50000000    0.01400000
opls_145-28    C    0.29089006    0.64371002    0.50000000    -0.16840000
opls_700-29    C    0.31352996    0.62353015    0.50000000    -0.03330000
opls_234-30    C    0.29390007    0.57803999    0.50000000    0.47000000
opls_700-31    C    0.18185008    0.44053992    0.50000000    0.00610000
opls_523-32    C    0.13985005    0.41339015    0.50000000    -0.11260000
opls_521-33    C    0.20815010    0.42457011    0.50000000    0.08530000
opls_522-34    C    0.12478990    0.37141005    0.50000000    -0.16140000
opls_521-35    C    0.15212016    0.35647016    0.50000000    0.16310000
opls_142-36    C    0.81194015    0.92214018    0.50000000    0.01400000
opls_145-37    C    0.97091988    0.01229997    0.50000000    -0.17230000
opls_700-38    C    0.95791019    0.97041026    0.50000000    -0.03350000
opls_234-39    C    0.91375017    0.93809021    0.50000000    0.47170000
opls_700-40    C    0.76934996    0.88849012    0.50000000    0.00640000
opls_521-41    C    0.73764013    0.89725021    0.50000000    0.08490000
opls_523-42    C    0.75941997    0.84756003    0.50000000    -0.11480000
opls_522-43    C    0.71870998    0.81654016    0.50000000    -0.16030000
opls_521-44    C    0.68763015    0.82656025    0.50000000    0.16310000
opls_142-45    C    0.51515004    0.71270019    0.50000000    0.01400000
opls_145-46    C    0.35629016    0.64718021    0.50000000    -0.16840000
opls_700-47    C    0.37646995    0.69000000    0.50000000    -0.03330000
opls_234-48    C    0.42196002    0.71585994    0.50000000    0.47000000
opls_700-49    C    0.55946007    0.74131022    0.50000000    0.00610000
opls_523-50    C    0.58661013    0.72646012    0.50000000    -0.11260000
opls_521-51    C    0.57542999    0.78358006    0.50000000    0.08530000
opls_522-52    C    0.62859016    0.75338010    0.50000000    -0.16140000
opls_521-53    C    0.64353018    0.79565024    0.50000000    0.16310000
opls_142-54    C    0.41154996    0.55711994    0.00000000    0.01330000
opls_145-55    C    0.32126998    0.62536020    0.00000000    -0.16840000
opls_700-56    C    0.36308008    0.65441002    0.00000000    -0.03330000
opls_234-57    C    0.39552999    0.64283014    0.00000000    0.47450000
opls_700-58    C    0.44513011    0.54810999    0.00000000    0.00800000
opls_521-59    C    0.43622999    0.50760021    0.00000000    0.08340000
opls_523-60    C    0.48608014    0.57904008    0.00000000    -0.11560000
opls_522-61    C    0.51701010    0.56923000    0.00000000    -0.16030000
opls_521-62    C    0.50684003    0.52808017    0.00000000    0.15520000
opls_142-63    C    0.62020991    0.46889004    0.00000000    0.01540000
opls_145-64    C    0.68604994    0.37577989    0.00000000    -0.16800000
opls_700-65    C    0.64322012    0.35304014    0.00000000    -0.03320000
opls_234-66    C    0.61722990    0.37259001    0.00000000    0.47170000
opls_700-67    C    0.59169003    0.48469002    0.00000000    0.00640000
opls_523-68    C    0.60667999    0.52672003    0.00000000    -0.11260000
opls_521-69    C    0.54940993    0.45850991    0.00000000    0.08680000
opls_522-70    C    0.57989985    0.54193992    0.00000000    -0.16230000
opls_521-71    C    0.53761997    0.51473019    0.00000000    0.15720000
opls_142-72    C    0.44288005    0.85443011    0.00000000    0.01330000
opls_145-73    C    0.37464011    0.69591016    0.00000000    -0.16840000
opls_700-74    C    0.34558987    0.70866999    0.00000000    -0.03330000
opls_234-75    C    0.35717007    0.75270019    0.00000000    0.47450000
opls_700-76    C    0.45189013    0.89702012    0.00000000    0.00800000
opls_521-77    C    0.49239993    0.92863012    0.00000000    0.08340000
opls_523-78    C    0.42096001    0.90704020    0.00000000    -0.11560000
opls_522-79    C    0.43077011    0.94778008    0.00000000    -0.16030000
opls_521-80    C    0.47192010    0.97876008    0.00000000    0.15520000
opls_142-81    C    0.53110990    0.15131996    0.00000000    0.01540000
opls_145-82    C    0.62421985    0.31026996    0.00000000    -0.16800000
opls_700-83    C    0.64696015    0.29018017    0.00000000    -0.03320000
opls_234-84    C    0.62740993    0.24464011    0.00000000    0.47170000
opls_700-85    C    0.51530998    0.10700003    0.00000000    0.00640000
opls_523-86    C    0.47328001    0.07996013    0.00000000    -0.11260000
opls_521-87    C    0.54149004    0.09089996    0.00000000    0.08510000
opls_522-88    C    0.45806010    0.03795995    0.00000000    -0.16230000
opls_521-89    C    0.48527004    0.02289010    0.00000000    0.15720000
opls_142-90    C    0.14556999    0.58844995    0.00000000    0.01330000
opls_145-91    C    0.30409007    0.67872995    0.00000000    -0.16840000
opls_700-92    C    0.29133005    0.63691999    0.00000000    -0.03330000
opls_234-93    C    0.24730009    0.60446998    0.00000000    0.47450000
opls_700-94    C    0.10298017    0.55487020    0.00000000    0.00800000
opls_521-95    C    0.07136996    0.56376997    0.00000000    0.08340000
opls_523-96    C    0.09296001    0.51392002    0.00000000    -0.11560000
opls_522-97    C    0.05222006    0.48298993    0.00000000    -0.16030000
opls_521-98    C    0.02124002    0.49316006    0.00000000    0.15520000
opls_142-99    C    0.84867992    0.37979000    0.00000000    0.01540000
opls_145-100    C    0.68972995    0.31395015    0.00000000    -0.16800000
opls_700-101    C    0.70981988    0.35677999    0.00000000    -0.03320000
opls_234-102    C    0.75536005    0.38277019    0.00000000    0.47170000
opls_700-103    C    0.89299999    0.40830995    0.00000000    0.00630000
opls_523-104    C    0.92004015    0.39332014    0.00000000    -0.11260000
opls_521-105    C    0.90910002    0.45059013    0.00000000    0.08680000
opls_522-106    C    0.96204005    0.42010013    0.00000000    -0.16230000
opls_521-107    C    0.97710988    0.46238001    0.00000000    0.15720000
opls_238-108    N    0.05314012    0.93592020    0.50000000    -0.26620000
opls_750-109    N    0.08489020    0.92696016    0.50000000    -0.17670000
opls_520-110    N    0.13339010    0.83169005    0.50000000    -0.28750000
opls_238-111    N    0.30016016    0.74750008    0.50000000    -0.26630000
opls_520-112    N    0.19083996    0.80717016    0.50000000    -0.28750000
opls_750-113    N    0.27392000    0.76360015    0.50000000    -0.17710000
opls_238-114    N    0.06407999    0.11722007    0.50000000    -0.26620000
opls_750-115    N    0.07304018    0.15793012    0.50000000    -0.17670000
opls_520-116    N    0.16830998    0.30170009    0.50000000    -0.28740000
opls_238-117    N    0.25250001    0.55266001    0.50000000    -0.26630000
opls_520-118    N    0.19283007    0.38367015    0.50000000    -0.28750000
opls_750-119    N    0.23640020    0.51032018    0.50000000    -0.17710000
opls_238-120    N    0.88278004    0.94686003    0.50000000    -0.26630000
opls_750-121    N    0.84207003    0.91511002    0.50000000    -0.17670000
opls_520-122    N    0.69830007    0.86661016    0.50000000    -0.28750000
opls_238-123    N    0.44733998    0.69984022    0.50000000    -0.26630000
opls_520-124    N    0.61632987    0.80916000    0.50000000    -0.28750000
opls_750-125    N    0.48967995    0.72607998    0.50000000    -0.17710000
opls_238-126    N    0.38686996    0.60316006    0.00000000    -0.26610000
opls_750-127    N    0.41865005    0.59428006    0.00000000    -0.17710000
opls_520-128    N    0.46678017    0.49878017    0.00000000    -0.28440000
opls_238-129    N    0.63312994    0.41397997    0.00000000    -0.26630000
opls_520-130    N    0.52395995    0.47399002    0.00000000    -0.28740000
opls_750-131    N    0.60682003    0.43004017    0.00000000    -0.17670000
opls_238-132    N    0.39683998    0.78371002    0.00000000    -0.26610000
opls_750-133    N    0.40572013    0.82437015    0.00000000    -0.17700000
opls_520-134    N    0.50122015    0.96800012    0.00000000    -0.28430000
opls_238-135    N    0.58601989    0.21914995    0.00000000    -0.26630000
opls_520-136    N    0.52600997    0.04996987    0.00000000    -0.28750000
opls_750-137    N    0.56996010    0.17677999    0.00000000    -0.17660000
opls_238-138    N    0.21629006    0.61312993    0.00000000    -0.26610000
opls_750-139    N    0.17562998    0.58135009    0.00000000    -0.17710000
opls_520-140    N    0.03200010    0.53322001    0.00000000    -0.28440000
opls_238-141    N    0.78085017    0.36687007    0.00000000    -0.26630000
opls_520-142    N    0.95003007    0.47604011    0.00000000    -0.28740000
opls_750-143    N    0.82322001    0.39318014    0.00000000    -0.17670000
opls_236-144    O    0.09757998    0.00252001    0.50000000    -0.38900000
opls_236-145    O    0.24716998    0.68431993    0.50000000    -0.38900000
opls_236-146    O    0.99747998    0.09506011    0.50000000    -0.38900000
opls_236-147    O    0.31567984    0.56284993    0.50000000    -0.38890000
opls_236-148    O    0.90494019    0.90242018    0.50000000    -0.38900000
opls_236-149    O    0.43715018    0.75283014    0.50000000    -0.38900000
opls_236-150    O    0.43116991    0.66979000    0.00000000    -0.38290000
opls_236-151    O    0.58027018    0.35073013    0.00000000    -0.38900000
opls_236-152    O    0.33021014    0.76138022    0.00000000    -0.38290000
opls_236-153    O    0.64927006    0.22954013    0.00000000    -0.38590000
opls_236-154    O    0.23862010    0.56883008    0.00000000    -0.38280000
opls_236-155    O    0.77045991    0.41973004    0.00000000    -0.38900000
opls_144-156    H    0.04675014    0.86470006    0.50000000    0.12250000
opls_910-157    H    0.02329019    0.91179018    0.50000000    0.27670000
opls_146-158    H    0.97750007    0.92656999    0.50000000    0.11250000
opls_144-159    H    0.31978018    0.82373010    0.50000000    0.11080000
opls_910-160    H    0.33141991    0.76761999    0.50000000    0.27670000
opls_146-161    H    0.36849016    0.74184009    0.50000000    0.09020000
opls_524-162    H    0.07154018    0.81564020    0.50000000    0.11980000
opls_526-163    H    0.16053013    0.94357002    0.50000000    0.12060000
opls_525-164    H    0.21452994    0.92688012    0.50000000    0.12970000
opls_526-165    H    0.30601005    0.88135009    0.50000000    0.11870000
opls_524-166    H    0.20360003    0.75916000    0.50000000    0.10140000
opls_525-167    H    0.25931993    0.90778008    0.50000000    0.12110000
opls_144-168    H    0.13529996    0.18205010    0.50000000    0.12250000
opls_910-169    H    0.08821001    0.11150014    0.50000000    0.27670000
opls_146-170    H    0.07342999    0.05093009    0.50000000    0.11250000
opls_144-171    H    0.17627020    0.49605016    0.50000000    0.11090000
opls_910-172    H    0.23238002    0.56380010    0.50000000    0.27670000
opls_146-173    H    0.25816002    0.62665003    0.50000000    0.09020000
opls_524-174    H    0.18436018    0.25590011    0.50000000    0.11980000
opls_526-175    H    0.05643000    0.21696016    0.50000000    0.12060000
opls_525-176    H    0.07312000    0.28765012    0.50000000    0.12970000
opls_526-177    H    0.11865008    0.42466019    0.50000000    0.11870000
opls_524-178    H    0.24084000    0.44444015    0.50000000    0.10140000
opls_525-179    H    0.09221992    0.35154001    0.50000000    0.12110000
opls_144-180    H    0.81795006    0.95325014    0.50000000    0.12250000
opls_910-181    H    0.88849996    0.97670999    0.50000000    0.27670000
opls_146-182    H    0.94906994    0.02249992    0.50000000    0.11250000
opls_144-183    H    0.50395003    0.68022004    0.50000000    0.11080000
opls_910-184    H    0.43620023    0.66858021    0.50000000    0.27670000
opls_146-185    H    0.37334998    0.63151018    0.50000000    0.09020000
opls_524-186    H    0.74410005    0.92845999    0.50000000    0.11980000
opls_526-187    H    0.78304002    0.83947013    0.50000000    0.12060000
opls_525-188    H    0.71234995    0.78547007    0.50000000    0.12970000
opls_526-189    H    0.57534003    0.69399002    0.50000000    0.11870000
opls_524-190    H    0.55556012    0.79640016    0.50000000    0.10140000
opls_525-191    H    0.64846004    0.74068022    0.50000000    0.12110000
opls_144-192    H    0.38043015    0.53204005    0.00000000    0.12250000
opls_910-193    H    0.35706016    0.57897008    0.00000000    0.27150000
opls_146-194    H    0.31116998    0.59334997    0.00000000    0.12170000
opls_144-195    H    0.65268995    0.49016009    0.00000000    0.10880000
opls_910-196    H    0.66437001    0.43416015    0.00000000    0.27150000
opls_146-197    H    0.70164003    0.40850991    0.00000000    0.09570000
opls_524-198    H    0.40499015    0.48291019    0.00000000    0.11990000
opls_526-199    H    0.49425007    0.61078005    0.00000000    0.12220000
opls_525-200    H    0.54811008    0.59388015    0.00000000    0.12970000
opls_526-201    H    0.63916987    0.54782999    0.00000000    0.11870000
opls_524-202    H    0.53648015    0.42582007    0.00000000    0.11580000
opls_525-203    H    0.59271002    0.57452019    0.00000000    0.12970000
opls_144-204    H    0.46795989    0.84838999    0.00000000    0.12250000
opls_910-205    H    0.42103008    0.77809021    0.00000000    0.27150000
opls_146-206    H    0.40665009    0.71781995    0.00000000    0.12170000
opls_144-207    H    0.50984015    0.16253005    0.00000000    0.10890000
opls_910-208    H    0.56584011    0.23021000    0.00000000    0.27150000
opls_146-209    H    0.59148984    0.29312993    0.00000000    0.09570000
opls_524-210    H    0.51709019    0.92208023    0.00000000    0.11980000
opls_526-211    H    0.38922007    0.88347019    0.00000000    0.12220000
opls_525-212    H    0.40612008    0.95423015    0.00000000    0.12970000
opls_526-213    H    0.45217002    0.09134005    0.00000000    0.11870000
opls_524-214    H    0.57418009    0.11066013    0.00000000    0.11580000
opls_525-215    H    0.42548010    0.01819004    0.00000000    0.12970000
opls_144-216    H    0.15160996    0.61956995    0.00000000    0.12250000
opls_910-217    H    0.22190991    0.64294001    0.00000000    0.27160000
opls_146-218    H    0.28217993    0.68883008    0.00000000    0.12170000
opls_144-219    H    0.83747005    0.34731016    0.00000000    0.10880000
opls_910-220    H    0.76979004    0.33563015    0.00000000    0.27150000
opls_146-221    H    0.70687012    0.29836017    0.00000000    0.09570000
opls_524-222    H    0.07792023    0.59501020    0.00000000    0.11980000
opls_526-223    H    0.11653002    0.50575007    0.00000000    0.12220000
opls_525-224    H    0.04576999    0.45189001    0.00000000    0.12970000
opls_526-225    H    0.90866010    0.36082996    0.00000000    0.11870000
opls_524-226    H    0.88934018    0.46352010    0.00000000    0.11580000
opls_525-227    H    0.98181003    0.40729008    0.00000000    0.12970000
