#======================================================================
# Crystal Data Generated By AuToFF
#----------------------------------------------------------------------

data_AuToFF_phase_1

_cell_length_a                         25.5984
_cell_length_b                         25.5984
_cell_length_c                         10.6689
_cell_angle_alpha                      90.00
_cell_angle_beta                       90.00
_cell_angle_gamma                      120.00
_symmetry_space_group_name_H-M_alt     'P 1'
_symmetry_space_group_IT_number        1

loop_
_space_group_symop_operation_xyz
   'x, y, z'

loop_
   _atom_site_label
   _atom_site_type_symbol
   _atom_site_fract_x
   _atom_site_fract_y
   _atom_site_fract_z
   _atom_site_charge
opls_522-0    C    0.98919005    0.06356980    0.01219995    -0.20900000
opls_142-1    C    0.12773991    0.05132019    0.05042038    -0.12820000
opls_145-2    C    0.22357001    0.15372013    0.06249004    -0.10570000
opls_145-3    C    0.28383006    0.18696992    0.09856967    -0.12820000
opls_700-4    C    0.31373001    0.15864009    0.15015981    0.05810000
opls_523-5    C    0.47629007    0.20193009    0.21590042    -0.12530000
opls_145-6    C    0.41524980    0.16801992    0.18578016    -0.12650000
opls_700-7    C    0.37824024    0.19416019    0.18851990    0.06470000
opls_145-8    C    0.40373000    0.25463014    0.22728960    -0.13620000
opls_523-9    C    0.46499023    0.28873023    0.25613981    -0.12650000
opls_700-10    C    0.50212007    0.26305006    0.24818960    -0.00620000
opls_531-11    C    0.56807010    0.30072002    0.26319958    0.32420000
opls_142-12    C    0.09019997    0.07324012    0.01083992    -0.10580000
opls_700-13    C    0.18956005    0.08701981    0.07648961    0.11710000
opls_145-14    C    0.27996982    0.09197992    0.16199046    -0.10570000
opls_145-15    C    0.22011000    0.05866021    0.12417025    -0.11960000
opls_700-16    C    0.02353007    0.03535004    0.00551978    0.09330000
opls_908-17    C    0.83251000    0.93376024    0.95435987    -0.04680000
opls_135-18    C    0.82141025    0.95168042    0.82402966    -0.44010000
opls_142-19    C    0.91188014    0.11453002    0.09526005    -0.12600000
opls_145-20    C    0.81081993    0.11055011    0.10189991    -0.10780000
opls_145-21    C    0.77800982    0.13775990    0.13788957    -0.14150000
opls_700-22    C    0.80646002    0.19505017    0.19295991    0.05890000
opls_523-23    C    0.76313020    0.31509018    0.23559036    -0.12870000
opls_145-24    C    0.79750010    0.28757004    0.21520025    -0.12830000
opls_700-25    C    0.77132018    0.22474002    0.22583022    0.05720000
opls_145-26    C    0.71057007    0.19042026    0.26284997    -0.12930000
opls_523-27    C    0.67589998    0.21785017    0.28119956    -0.12700000
opls_700-28    C    0.70156982    0.28029993    0.26522041    -0.00680000
opls_531-29    C    0.66381003    0.30870013    0.27074019    0.33740000
opls_142-30    C    0.89040012    0.06073023    0.02810037    -0.15290000
opls_700-31    C    0.87709002    0.14131985    0.12330981    0.11680000
opls_145-32    C    0.87262008    0.22637023    0.21204998    -0.10570000
opls_145-33    C    0.90544013    0.19867012    0.17845982    -0.12430000
opls_521-34    C    0.92580002    0.02967992    0.00868037    0.16980000
opls_522-35    C    0.99348007    0.97246002    0.00179962    -0.22030000
opls_142-36    C    0.85498008    0.84249032    0.10871036    -0.12650000
opls_145-37    C    0.86114029    0.74686024    0.10873005    -0.10780000
opls_145-38    C    0.83343987    0.68558013    0.13389009    -0.14270000
opls_700-39    C    0.77584988    0.65474995    0.18762009    0.05850000
opls_523-40    C    0.65238021    0.49115020    0.22021014    -0.12930000
opls_145-41    C    0.68154016    0.55351019    0.20224016    -0.13620000
opls_700-42    C    0.74482998    0.58847004    0.20720037    0.05990000
opls_145-43    C    0.77812990    0.55932015    0.22940041    -0.12820000
opls_523-44    C    0.74912017    0.49724027    0.24712013    -0.12650000
opls_700-45    C    0.68595015    0.46243018    0.24289008    -0.00620000
opls_531-46    C    0.65603015    0.39641010    0.25818969    0.33530000
opls_142-47    C    0.90320032    0.87376031    0.02613015    -0.17930000
opls_700-48    C    0.83022008    0.78135006    0.13839009    0.08880000
opls_145-49    C    0.74656984    0.68986993    0.22453955    -0.10570000
opls_145-50    C    0.77446007    0.75147031    0.19997001    -0.13080000
opls_521-51    C    0.93044001    0.93917008    0.00279973    0.14920000
opls_522-52    C    0.93642983    0.92561999    0.34553047    -0.20900000
opls_142-53    C    0.94868009    0.07641981    0.38374996    -0.12820000
opls_145-54    C    0.84628012    0.06985023    0.39581963    -0.10570000
opls_145-55    C    0.81303023    0.09686019    0.43190020    -0.12820000
opls_700-56    C    0.84135996    0.15509007    0.48349033    0.05810000
opls_523-57    C    0.79807017    0.27436007    0.54923000    -0.12530000
opls_145-58    C    0.83198004    0.24723012    0.51910975    -0.12650000
opls_700-59    C    0.80584000    0.18407983    0.52185043    0.06470000
opls_145-60    C    0.74537012    0.14910013    0.56062012    -0.13620000
opls_523-61    C    0.71127004    0.17625985    0.58947033    -0.12650000
opls_700-62    C    0.73695017    0.23907003    0.58152012    -0.00620000
opls_531-63    C    0.69928000    0.26735024    0.59653010    0.32420000
opls_142-64    C    0.92675996    0.01695983    0.34417044    -0.10580000
opls_700-65    C    0.91298022    0.10254023    0.40982013    0.11710000
opls_145-66    C    0.90802001    0.18798982    0.49532004    -0.10570000
opls_145-67    C    0.94134006    0.16144989    0.45749984    -0.11960000
opls_700-68    C    0.96465001    0.98818027    0.33885030    0.09330000
opls_908-69    C    0.06624028    0.89875032    0.28769039    -0.04680000
opls_135-70    C    0.04832030    0.86973033    0.15736018    -0.44010000
opls_142-71    C    0.88546987    0.79734998    0.42858964    -0.12600000
opls_145-72    C    0.88945001    0.70027011    0.43523044    -0.10780000
opls_145-73    C    0.86224030    0.64025033    0.47122009    -0.14150000
opls_700-74    C    0.80495004    0.61141033    0.52629043    0.05890000
opls_523-75    C    0.68491022    0.44804018    0.56891994    -0.12870000
opls_145-76    C    0.71242999    0.50993015    0.54852984    -0.12830000
opls_700-77    C    0.77526015    0.54658020    0.55915980    0.05720000
opls_145-78    C    0.80957999    0.52014989    0.59617955    -0.12930000
opls_523-79    C    0.78214989    0.45805017    0.61453008    -0.12700000
opls_700-80    C    0.71970012    0.42127020    0.59854999    -0.00680000
opls_531-81    C    0.69130014    0.35511028    0.60406977    0.33740000
opls_142-82    C    0.93927016    0.82967009    0.36142995    -0.15290000
opls_700-83    C    0.85868031    0.73577036    0.45664033    0.11680000
opls_145-84    C    0.77363020    0.64625019    0.54537956    -0.10570000
opls_145-85    C    0.80133029    0.70677022    0.51179034    -0.12430000
opls_521-86    C    0.97032001    0.89612005    0.34200995    0.16980000
opls_522-87    C    0.02753998    0.02102003    0.33513014    -0.22030000
opls_142-88    C    0.15750994    0.01249004    0.44203995    -0.12650000
opls_145-89    C    0.25314020    0.11428012    0.44205963    -0.10780000
opls_145-90    C    0.31442008    0.14786011    0.46721968    -0.14270000
opls_700-91    C    0.34524985    0.12110005    0.52094968    0.05850000
opls_523-92    C    0.50885007    0.16123021    0.55353973    -0.12710000
opls_145-93    C    0.44649010    0.12803004    0.53556974    -0.13620000
opls_700-94    C    0.41153006    0.15635987    0.54052995    0.05990000
opls_145-95    C    0.44068004    0.21881008    0.56272999    -0.12820000
opls_523-96    C    0.50275998    0.25187989    0.58044972    -0.12650000
opls_700-97    C    0.53756974    0.22351984    0.57621967    -0.00620000
opls_531-98    C    0.60359001    0.25962003    0.59152021    0.33530000
opls_142-99    C    0.12623983    0.02943994    0.35945974    -0.17930000
opls_700-100    C    0.21864982    0.04886990    0.47171967    0.08880000
opls_145-101    C    0.31013001    0.05669980    0.55787007    -0.10570000
opls_145-102    C    0.24853008    0.02298991    0.53329959    -0.13080000
opls_521-103    C    0.06083018    0.99127019    0.33613025    0.14920000
opls_522-104    C    0.07438012    0.01081021    0.67887036    -0.20900000
opls_142-105    C    0.92358000    0.87226001    0.71708986    -0.12820000
opls_145-106    C    0.93015009    0.77643009    0.72916046    -0.10570000
opls_145-107    C    0.90314033    0.71617034    0.76524009    -0.12820000
opls_700-108    C    0.84491026    0.68627029    0.81683023    0.05810000
opls_523-109    C    0.72563999    0.52371029    0.88256990    -0.12530000
opls_145-110    C    0.75277016    0.58474996    0.85244964    -0.12650000
opls_700-111    C    0.81592015    0.62175998    0.85519032    0.06470000
opls_145-112    C    0.85090010    0.59627017    0.89396001    -0.13620000
opls_523-113    C    0.82374011    0.53500992    0.92281022    -0.12650000
opls_700-114    C    0.76092977    0.49787991    0.91486001    -0.00620000
opls_531-115    C    0.73265012    0.43193019    0.92987000    0.32420000
opls_142-116    C    0.98304007    0.90980005    0.67751033    -0.10580000
opls_700-117    C    0.89746012    0.81043996    0.74316003    0.11710000
opls_145-118    C    0.81201018    0.72003026    0.82865994    -0.10570000
opls_145-119    C    0.83855017    0.77989035    0.79083973    -0.11960000
opls_700-120    C    0.01182014    0.97647015    0.67219020    0.09330000
opls_908-121    C    0.10124995    0.16748989    0.62103028    -0.04680000
opls_135-122    C    0.13026990    0.17859015    0.49070007    -0.44010000
opls_142-123    C    0.20264999    0.08812000    0.76192953    -0.12600000
opls_145-124    C    0.29973028    0.18918023    0.76857033    -0.10780000
opls_145-125    C    0.35975011    0.22199022    0.80455998    -0.14150000
opls_700-126    C    0.38859017    0.19353995    0.85963033    0.06040000
opls_523-127    C    0.55196019    0.23687010    0.90225984    -0.12870000
opls_145-128    C    0.49007014    0.20250026    0.88186973    -0.12830000
opls_700-129    C    0.45342029    0.22868023    0.89249970    0.05720000
opls_145-130    C    0.47984994    0.28942986    0.92952038    -0.12930000
opls_523-131    C    0.54194997    0.32410011    0.94786998    -0.12700000
opls_700-132    C    0.57873006    0.29842987    0.93188989    -0.00680000
opls_531-133    C    0.64489006    0.33619004    0.93740967    0.33740000
opls_142-134    C    0.17032994    0.10960013    0.69476985    -0.15290000
opls_700-135    C    0.26423030    0.12291024    0.78998022    0.11680000
opls_145-136    C    0.35374994    0.12738003    0.87872039    -0.10570000
opls_145-137    C    0.29323020    0.09456012    0.84513024    -0.12430000
opls_521-138    C    0.10387997    0.07420003    0.67534985    0.16980000
opls_522-139    C    0.97897995    0.00651996    0.66847004    -0.22030000
opls_142-140    C    0.98751020    0.14502009    0.77537984    -0.12650000
opls_145-141    C    0.88572013    0.13886009    0.77540046    -0.10780000
opls_145-142    C    0.85214027    0.16656021    0.80055957    -0.14270000
opls_700-143    C    0.87889988    0.22415000    0.85428957    0.05850000
opls_523-144    C    0.83876994    0.34762004    0.88687962    -0.12710000
opls_145-145    C    0.87196997    0.31846022    0.86890963    -0.13620000
opls_700-146    C    0.84363995    0.25517009    0.87386985    0.05990000
opls_145-147    C    0.78119029    0.22187023    0.89606989    -0.12820000
opls_523-148    C    0.74811985    0.25087984    0.91378961    -0.12650000
opls_700-149    C    0.77648011    0.31404998    0.90955956    -0.00620000
opls_531-150    C    0.74037984    0.34396987    0.92486011    0.33530000
opls_142-151    C    0.97056008    0.09680020    0.69279963    -0.17930000
opls_700-152    C    0.95113010    0.16978004    0.80505957    0.08880000
opls_145-153    C    0.94330015    0.25343026    0.89120997    -0.10570000
opls_145-154    C    0.97701007    0.22554024    0.86664042    -0.13080000
opls_521-155    C    0.00873003    0.06956018    0.66947014    0.14920000
opls_144-156    H    0.10879010    0.12072024    0.99234973    0.11380000
opls_146-157    H    0.30733000    0.23514019    0.08262989    0.10910000
opls_146-158    H    0.20341011    0.17801998    0.02193010    0.10680000
opls_526-159    H    0.48345002    0.33553011    0.28267956    0.10710000
opls_146-160    H    0.39807003    0.12201981    0.15537965    0.10890000
opls_526-161    H    0.50371005    0.18078016    0.20847041    0.10870000
opls_146-162    H    0.37651991    0.27590999    0.23582000    0.11180000
opls_144-163    H    0.10751995    0.00392984    0.07041026    0.07990000
opls_146-164    H    0.19696007    0.01013990    0.13635989    0.10950000
opls_146-165    H    0.30040009    0.06822002    0.20469027    0.11160000
opls_140-166    H    0.80481029    0.94003029    0.02638979    0.05080000
opls_140-167    H    0.81462006    0.88462014    0.94809024    0.08080000
opls_140-168    H    0.85212014    0.99994001    0.80321964    0.11760000
opls_140-169    H    0.77417012    0.94220000    0.81768036    0.15700000
opls_140-170    H    0.82786005    0.92486037    0.75047006    0.15810000
opls_144-171    H    0.84543995    0.03960014    0.99147991    0.22550000
opls_146-172    H    0.73007994    0.11416013    0.11877982    0.11090000
opls_146-173    H    0.78577001    0.06620999    0.06111033    0.09350000
opls_526-174    H    0.62884996    0.19003007    0.30653020    0.10420000
opls_146-175    H    0.84380011    0.31541992    0.18521028    0.10790000
opls_526-176    H    0.78427988    0.36338991    0.22227034    0.10710000
opls_146-177    H    0.68951974    0.14220984    0.27693014    0.10810000
opls_144-178    H    0.95776002    0.13697998    0.12952038    0.11140000
opls_146-179    H    0.95358996    0.22248009    0.19608957    0.10620000
opls_146-180    H    0.89605992    0.27022003    0.25630009    0.10900000
opls_144-181    H    0.92635007    0.85221026    0.98654969    0.10750000
opls_146-182    H    0.85725031    0.66234033    0.10789022    0.11360000
opls_146-183    H    0.90574035    0.76793033    0.06848972    0.10280000
opls_526-184    H    0.77647991    0.47664021    0.26458960    0.10710000
opls_146-185    H    0.65437005    0.57399027    0.18192972    0.11110000
opls_526-186    H    0.60363003    0.46544026    0.21481034    0.10670000
opls_146-187    H    0.82678010    0.58424024    0.23529042    0.10680000
opls_144-188    H    0.83419012    0.86651997    0.14909972    0.10950000
opls_146-189    H    0.75151016    0.77561002    0.22719962    0.10530000
opls_146-190    H    0.70387010    0.66845025    0.27361021    0.11110000
opls_525-191    H    0.88782029    0.90028039    0.35226968    0.10770000
opls_525-192    H    0.93033004    0.98181999    0.66700035    0.10980000
opls_144-193    H    0.87928027    0.98807020    0.32568025    0.11380000
opls_146-194    H    0.76486008    0.07219000    0.41596041    0.10900000
opls_146-195    H    0.82198001    0.02539012    0.35525968    0.10680000
opls_526-196    H    0.66447000    0.14792010    0.61601009    0.10710000
opls_146-197    H    0.87797998    0.27605028    0.48871018    0.10890000
opls_526-198    H    0.81922017    0.32293000    0.54180000    0.10870000
opls_146-199    H    0.72409010    0.10061004    0.56914958    0.11180000
opls_144-200    H    0.99606998    0.10358990    0.40373984    0.07990000
opls_146-201    H    0.98986025    0.18682016    0.46969041    0.10950000
opls_146-202    H    0.93178014    0.23218018    0.53801985    0.11160000
opls_140-203    H    0.05996992    0.86478015    0.35972031    0.05080000
opls_140-204    H    0.11538011    0.93000001    0.28141983    0.08080000
opls_140-205    H    0.00005988    0.85218004    0.13655016    0.11760000
opls_140-206    H    0.05780019    0.83197016    0.15100994    0.15700000
opls_140-207    H    0.07514014    0.90299997    0.08379964    0.15810000
opls_144-208    H    0.96040029    0.80584026    0.32481043    0.22550000
opls_146-209    H    0.88584000    0.61592026    0.45211034    0.11090000
opls_146-210    H    0.93379021    0.71956023    0.39443991    0.09350000
opls_526-211    H    0.80996998    0.43882004    0.63985978    0.10420000
opls_146-212    H    0.68457990    0.52837990    0.51853987    0.10790000
opls_526-213    H    0.63660988    0.42088993    0.55559992    0.10710000
opls_146-214    H    0.85778997    0.54731006    0.61025973    0.10810000
opls_144-215    H    0.86301992    0.82078014    0.46284997    0.11140000
opls_146-216    H    0.77751992    0.73111021    0.52942009    0.10620000
opls_146-217    H    0.72978005    0.62584003    0.58962967    0.10900000
opls_144-218    H    0.14778983    0.07414003    0.31988021    0.10750000
opls_146-219    H    0.33765980    0.19490989    0.44121981    0.11360000
opls_146-220    H    0.23206987    0.13780997    0.40182024    0.10280000
opls_526-221    H    0.52336011    0.29983996    0.59792012    0.10710000
opls_146-222    H    0.42600975    0.08037987    0.51526024    0.11110000
opls_526-223    H    0.53456015    0.13819024    0.54813992    0.10670000
opls_146-224    H    0.41576000    0.24254021    0.56862001    0.10680000
opls_144-225    H    0.13347988    0.96766997    0.48243024    0.10950000
opls_146-226    H    0.22439016    0.97589998    0.56053014    0.10530000
opls_146-227    H    0.33154990    0.03541995    0.60693980    0.11110000
opls_525-228    H    0.09972007    0.98754018    0.68560020    0.10770000
opls_525-229    H    0.01818011    0.94851021    0.00032993    0.10980000
opls_144-230    H    0.01192985    0.89121001    0.65902014    0.11380000
opls_146-231    H    0.92781014    0.69267026    0.74930030    0.10900000
opls_146-232    H    0.97461010    0.79659035    0.68859957    0.10680000
opls_526-233    H    0.85208020    0.51655024    0.94934998    0.10710000
opls_146-234    H    0.72394999    0.60192991    0.82205007    0.10890000
opls_526-235    H    0.67707000    0.49629029    0.87513989    0.10870000
opls_146-236    H    0.89938999    0.62347996    0.90249042    0.11180000
opls_144-237    H    0.89641006    0.89248026    0.73707974    0.07990000
opls_146-238    H    0.81318030    0.80304039    0.80303030    0.10950000
opls_146-239    H    0.76782000    0.69960025    0.87135975    0.11160000
opls_140-240    H    0.13522001    0.19519001    0.69306020    0.05080000
opls_140-241    H    0.06999984    0.18537985    0.61475972    0.08080000
opls_140-242    H    0.14781999    0.14787995    0.46989005    0.11760000
opls_140-243    H    0.16803008    0.22582984    0.48434984    0.15700000
opls_140-244    H    0.09700004    0.17214011    0.41713954    0.15810000
opls_144-245    H    0.19415998    0.15456005    0.65815032    0.22550000
opls_146-246    H    0.38407990    0.26992006    0.78545023    0.11090000
opls_146-247    H    0.28044001    0.21423023    0.72777981    0.09350000
opls_526-248    H    0.56118006    0.37114989    0.97319967    0.10420000
opls_146-249    H    0.47162000    0.15620018    0.85187976    0.10790000
opls_526-250    H    0.57911024    0.21572016    0.88893982    0.10710000
opls_146-251    H    0.45268989    0.31048011    0.94359962    0.10810000
opls_144-252    H    0.17922006    0.04223988    0.79618986    0.11140000
opls_146-253    H    0.26888996    0.04641014    0.86275998    0.10620000
opls_146-254    H    0.37416003    0.10393994    0.92296957    0.10900000
opls_144-255    H    0.92585994    0.07365016    0.65322011    0.10750000
opls_146-256    H    0.80509012    0.14275024    0.77455970    0.11360000
opls_146-257    H    0.86219000    0.09426015    0.73516014    0.10280000
opls_526-258    H    0.70015998    0.22351984    0.93126002    0.10710000
opls_146-259    H    0.91961981    0.34562986    0.84860014    0.11110000
opls_526-260    H    0.86181005    0.39636995    0.88147982    0.10670000
opls_146-261    H    0.75746013    0.17322000    0.90195990    0.10680000
opls_144-262    H    0.03232999    0.16581006    0.81577014    0.10950000
opls_146-263    H    0.02410007    0.24849000    0.89387003    0.10530000
opls_146-264    H    0.96458022    0.29613025    0.94027969    0.11110000
opls_525-265    H    0.01245987    0.11217988    0.01894010    0.10890000
opls_525-266    H    0.05148985    0.06966980    0.33366983    0.10980000
opls_520-267    N    0.59498021    0.36181021    0.25722989    -0.51560000
opls_900-268    N    0.89730009    0.96797039    0.99041045    -0.05680000
opls_520-269    N    0.60281014    0.27448006    0.26912990    -0.48530000
opls_520-270    N    0.68991996    0.36945021    0.26473020    -0.47390000
opls_520-271    N    0.63818980    0.23316986    0.59056041    -0.51560000
opls_900-272    N    0.03203022    0.92933015    0.32374003    -0.05680000
opls_520-273    N    0.72551997    0.32832992    0.60246042    -0.48530000
opls_520-274    N    0.63055006    0.32047025    0.59805978    -0.47390000
opls_520-275    N    0.76683000    0.40501992    0.92390031    -0.51560000
opls_900-276    N    0.07066991    0.10269991    0.65707992    -0.05680000
opls_520-277    N    0.67166989    0.39719002    0.93580032    -0.48530000
opls_520-278    N    0.67952981    0.31008000    0.93139968    -0.47390000
opls_402-279    Br    0.70663997    0.94104027    0.20230014    0.05340000
opls_402-280    Br    0.05895986    0.76560004    0.53562973    0.05340000
opls_402-281    Br    0.23440001    0.29336015    0.86896962    0.05340000
