#======================================================================
# Crystal Data Generated By AuToFF
#----------------------------------------------------------------------

data_AuToFF_phase_1

_cell_length_a                         37.3630
_cell_length_b                         37.3630
_cell_length_c                         3.4740
_cell_angle_alpha                      90.00
_cell_angle_beta                       90.00
_cell_angle_gamma                      120.00
_symmetry_space_group_name_H-M_alt     'P 1'
_symmetry_space_group_IT_number        1

loop_
_space_group_symop_operation_xyz
   'x, y, z'

loop_
   _atom_site_label
   _atom_site_type_symbol
   _atom_site_fract_x
   _atom_site_fract_y
   _atom_site_fract_z
   _atom_site_charge
opls_750-0    N    0.45620984    0.88699988    0.00000000    -0.24690000
opls_750-1    N    0.11299987    0.56920986    0.00000000    -0.24680000
opls_750-2    N    0.43078987    0.54378995    0.00000000    -0.24690000
opls_750-3    N    0.54379016    0.11300012    0.00000000    -0.24680000
opls_750-4    N    0.88699998    0.43078983    0.00000000    -0.24680000
opls_750-5    N    0.56921013    0.45621005    0.00000000    -0.24690000
opls_145-6    C    0.43021014    0.84408005    0.00000000    0.22650000
opls_145-7    C    0.38661988    0.82371001    0.00000000    -0.16140000
opls_145-8    C    0.36347005    0.78080996    0.00000000    -0.10760000
opls_700-9    C    0.38224984    0.75609994    0.00000000    0.07960000
opls_145-10    C    0.42581992    0.77678985    0.00000000    -0.10870000
opls_145-11    C    0.44926991    0.81966981    0.00000000    -0.15660000
opls_145-12    C    0.37632998    0.68615994    0.00000000    -0.13030000
opls_700-13    C    0.35726992    0.71045986    0.00000000    0.07160000
opls_142-14    C    0.47019985    0.55792988    0.00000000    0.08490000
opls_700-15    C    0.48606001    0.52921983    0.00000000    0.03180000
opls_142-16    C    0.45773997    0.48633987    0.00000000    -0.14510000
opls_261-17    C    0.47141003    0.45792002    0.00000000    -0.01020000
opls_145-18    C    0.15591996    0.58613000    0.00000000    0.22650000
opls_145-19    C    0.17628995    0.56290990    0.00000000    -0.16140000
opls_145-20    C    0.21918991    0.58265999    0.00000000    -0.10760000
opls_700-21    C    0.24389989    0.62615001    0.00000000    0.07960000
opls_145-22    C    0.22320989    0.64902985    0.00000000    -0.10870000
opls_145-23    C    0.18033003    0.62959993    0.00000000    -0.15660000
opls_145-24    C    0.31383985    0.69016986    0.00000000    -0.13030000
opls_700-25    C    0.28953992    0.64680995    0.00000000    0.07160000
opls_142-26    C    0.44206997    0.91226990    0.00000000    0.08490000
opls_700-27    C    0.47078011    0.95684005    0.00000000    0.03180000
opls_142-28    C    0.51366000    0.97139997    0.00000000    -0.14510000
opls_261-29    C    0.54207996    0.01349000    0.00000000    -0.01020000
opls_145-30    C    0.41386990    0.56978995    0.00000000    0.22650000
opls_145-31    C    0.43709018    0.61338010    0.00000000    -0.16140000
opls_145-32    C    0.41734004    0.63653005    0.00000000    -0.10760000
opls_700-33    C    0.37385000    0.61775005    0.00000000    0.07960000
opls_145-34    C    0.35097004    0.57417999    0.00000000    -0.10870000
opls_145-35    C    0.37039991    0.55072996    0.00000000    -0.15650000
opls_145-36    C    0.30983002    0.62366989    0.00000000    -0.13030000
opls_700-37    C    0.35319001    0.64272988    0.00000000    0.07160000
opls_142-38    C    0.08773003    0.52979991    0.00000000    0.08490000
opls_700-39    C    0.04315999    0.51393982    0.00000000    0.03180000
opls_142-40    C    0.02859988    0.54225985    0.00000000    -0.14510000
opls_261-41    C    0.98651002    0.52858998    0.00000000    -0.01010000
opls_145-42    C    0.56978986    0.15591995    0.00000000    0.22660000
opls_145-43    C    0.61338012    0.17628999    0.00000000    -0.16140000
opls_145-44    C    0.63652995    0.21919004    0.00000000    -0.10750000
opls_700-45    C    0.61775016    0.24390006    0.00000000    0.07960000
opls_145-46    C    0.57417993    0.22320984    0.00000000    -0.10870000
opls_145-47    C    0.55072994    0.18032989    0.00000000    -0.15660000
opls_145-48    C    0.62367002    0.31384006    0.00000000    -0.13030000
opls_700-49    C    0.64272993    0.28953983    0.00000000    0.07160000
opls_142-50    C    0.52980000    0.44206981    0.00000000    0.08490000
opls_700-51    C    0.51393983    0.47077986    0.00000000    0.03180000
opls_142-52    C    0.54225988    0.51365982    0.00000000    -0.14510000
opls_261-53    C    0.52858997    0.54207998    0.00000000    -0.01020000
opls_145-54    C    0.84408004    0.41387000    0.00000000    0.22660000
opls_145-55    C    0.82371005    0.43709010    0.00000000    -0.16120000
opls_145-56    C    0.78081009    0.41734001    0.00000000    -0.10760000
opls_700-57    C    0.75610011    0.37384999    0.00000000    0.07970000
opls_145-58    C    0.77678996    0.35096984    0.00000000    -0.10870000
opls_145-59    C    0.81966997    0.37040007    0.00000000    -0.15660000
opls_145-60    C    0.68616000    0.30982983    0.00000000    -0.13030000
opls_700-61    C    0.71046008    0.35319005    0.00000000    0.07170000
opls_142-62    C    0.55793003    0.08773010    0.00000000    0.08490000
opls_700-63    C    0.52921989    0.04315995    0.00000000    0.03180000
opls_142-64    C    0.48634000    0.02860003    0.00000000    -0.14510000
opls_261-65    C    0.45792004    0.98651000    0.00000000    -0.01020000
opls_145-66    C    0.58613010    0.43021005    0.00000000    0.22660000
opls_145-67    C    0.56290982    0.38661990    0.00000000    -0.16140000
opls_145-68    C    0.58265996    0.36346995    0.00000000    -0.10760000
opls_700-69    C    0.62615000    0.38224995    0.00000000    0.07960000
opls_145-70    C    0.64902996    0.42582001    0.00000000    -0.10870000
opls_145-71    C    0.62960009    0.44927004    0.00000000    -0.15660000
opls_145-72    C    0.69016998    0.37633011    0.00000000    -0.13030000
opls_700-73    C    0.64680999    0.35727012    0.00000000    0.07160000
opls_142-74    C    0.91226997    0.47020009    0.00000000    0.08500000
opls_700-75    C    0.95683986    0.48605987    0.00000000    0.03180000
opls_142-76    C    0.97139996    0.45773984    0.00000000    -0.14510000
opls_261-77    C    0.01348998    0.47141002    0.00000000    -0.01020000
opls_146-78    H    0.37034991    0.84137000    0.00000000    0.12320000
opls_146-79    H    0.32965983    0.76639993    0.00000000    0.07810000
opls_146-80    H    0.44220004    0.75925007    0.00000000    0.10060000
opls_146-81    H    0.48315004    0.83491984    0.00000000    0.08030000
opls_146-82    H    0.41014013    0.70149002    0.00000000    0.06790000
opls_144-83    H    0.49362987    0.59162984    0.00000000    0.05160000
opls_144-84    H    0.42462983    0.47626981    0.00000000    0.07030000
opls_146-85    H    0.15862993    0.52898000    0.00000000    0.12340000
opls_146-86    H    0.23360016    0.56326005    0.00000000    0.07820000
opls_146-87    H    0.24074988    0.68294985    0.00000000    0.10070000
opls_146-88    H    0.16508014    0.64823003    0.00000000    0.08030000
opls_146-89    H    0.29850992    0.70865007    0.00000000    0.06790000
opls_144-90    H    0.40837007    0.90199989    0.00000000    0.05160000
opls_144-91    H    0.52373011    0.94836005    0.00000000    0.07030000
opls_146-92    H    0.47101989    0.62964999    0.00000000    0.12320000
opls_146-93    H    0.43674001    0.67034003    0.00000000    0.07820000
opls_146-94    H    0.31705008    0.55780008    0.00000000    0.10060000
opls_146-95    H    0.35176993    0.51684982    0.00000000    0.08030000
opls_146-96    H    0.29134994    0.58985991    0.00000000    0.06790000
opls_144-97    H    0.09799991    0.50636997    0.00000000    0.05160000
opls_144-98    H    0.05163990    0.57536983    0.00000000    0.07030000
opls_146-99    H    0.62965009    0.15863000    0.00000000    0.12330000
opls_146-100    H    0.67034017    0.23360007    0.00000000    0.07810000
opls_146-101    H    0.55779996    0.24074993    0.00000000    0.10060000
opls_146-102    H    0.51684981    0.16507985    0.00000000    0.08040000
opls_146-103    H    0.58985987    0.29850998    0.00000000    0.06790000
opls_144-104    H    0.50636998    0.40836986    0.00000000    0.05160000
opls_144-105    H    0.57537001    0.52372988    0.00000000    0.07030000
opls_146-106    H    0.84137007    0.47102000    0.00000000    0.12320000
opls_146-107    H    0.76639984    0.43673995    0.00000000    0.07820000
opls_146-108    H    0.75924997    0.31704984    0.00000000    0.10060000
opls_146-109    H    0.83491986    0.35176997    0.00000000    0.08030000
opls_146-110    H    0.70149008    0.29134993    0.00000000    0.06790000
opls_144-111    H    0.59162993    0.09800011    0.00000000    0.05160000
opls_144-112    H    0.47626989    0.05163995    0.00000000    0.07030000
opls_146-113    H    0.52898011    0.37035001    0.00000000    0.12330000
opls_146-114    H    0.56325999    0.32965997    0.00000000    0.07810000
opls_146-115    H    0.68294992    0.44219992    0.00000000    0.10070000
opls_146-116    H    0.64822991    0.48314987    0.00000000    0.08030000
opls_146-117    H    0.70865006    0.41014009    0.00000000    0.06790000
opls_144-118    H    0.90200009    0.49363003    0.00000000    0.05160000
opls_144-119    H    0.94835995    0.42462986    0.00000000    0.07030000
