#======================================================================
# Crystal Data Generated By AuToFF
#----------------------------------------------------------------------

data_AuToFF_phase_1

_cell_length_a                         28.0700
_cell_length_b                         28.0700
_cell_length_c                         3.4100
_cell_angle_alpha                      90.00
_cell_angle_beta                       90.00
_cell_angle_gamma                      120.00
_symmetry_space_group_name_H-M_alt     'P 1'
_symmetry_space_group_IT_number        1

loop_
_space_group_symop_operation_xyz
   'x, y, z'

loop_
   _atom_site_label
   _atom_site_type_symbol
   _atom_site_fract_x
   _atom_site_fract_y
   _atom_site_fract_z
   _atom_site_charge
opls_167-0    O    0.89168998    0.98105007    0.00000000    -0.44860000
opls_236-1    O    0.28082024    0.44262018    0.00000000    -0.38010000
opls_236-2    O    0.12540979    0.45298986    0.00000000    -0.40040000
opls_167-3    O    0.21724005    0.60504012    0.00000000    -0.44860000
opls_167-4    O    0.01894989    0.91064007    0.00000000    -0.44860000
opls_236-5    O    0.55738001    0.83819998    0.00000000    -0.38010000
opls_236-6    O    0.54701015    0.67242001    0.00000000    -0.40360000
opls_167-7    O    0.39495996    0.61219992    0.00000000    -0.44860000
opls_167-8    O    0.08935977    0.10830985    0.00000000    -0.44860000
opls_236-9    O    0.16179996    0.71918025    0.00000000    -0.38010000
opls_236-10    O    0.32758007    0.87459013    0.00000000    -0.40040000
opls_167-11    O    0.38780000    0.78275995    0.00000000    -0.44860000
opls_916-12    C    0.19904002    0.95084027    0.00000000    0.16480000
opls_166-13    C    0.94603006    0.99178011    0.00000000    0.22950000
opls_145-14    C    0.25657003    0.97447030    0.00000000    -0.16840000
opls_700-15    C    0.05443011    0.00804012    0.00000000    -0.12910000
opls_142-16    C    0.11209002    0.01677998    0.00000000    0.03060000
opls_145-17    C    0.13656003    0.24481012    0.00000000    -0.17280000
opls_145-18    C    0.19380012    0.27164015    0.00000000    -0.13940000
opls_700-19    C    0.10803000    0.27411985    0.00000000    0.00180000
opls_523-20    C    0.22446997    0.32864995    0.00000000    -0.12850000
opls_700-21    C    0.14018010    0.33293020    0.00000000    0.01410000
opls_523-22    C    0.05728980    0.33902991    0.00000000    -0.12780000
opls_700-23    C    0.19811998    0.35986019    0.00000000    -0.04580000
opls_700-24    C    0.11459012    0.36490023    0.00000000    -0.07060000
opls_234-25    C    0.23092994    0.42097993    0.00000000    0.42100000
opls_234-26    C    0.14841025    0.42581017    0.00000000    0.41860000
opls_142-27    C    0.28471996    0.54631987    0.00000000    0.02080000
opls_700-28    C    0.30763015    0.60792009    0.00000000    -0.13360000
opls_166-29    C    0.27507995    0.63411003    0.00000000    0.24230000
opls_916-30    C    0.04915994    0.24820018    0.00000000    0.16480000
opls_166-31    C    0.00822016    0.95425008    0.00000000    0.22950000
opls_145-32    C    0.02552983    0.28209992    0.00000000    -0.16840000
opls_700-33    C    0.99195988    0.04639001    0.00000000    -0.12910000
opls_142-34    C    0.98321997    0.09530991    0.00000000    0.03060000
opls_145-35    C    0.75519003    0.89175020    0.00000000    -0.17280000
opls_145-36    C    0.72835998    0.92215993    0.00000000    -0.13940000
opls_700-37    C    0.72587997    0.83391027    0.00000000    0.00180000
opls_523-38    C    0.67135009    0.89582025    0.00000000    -0.12840000
opls_700-39    C    0.66707003    0.80725014    0.00000000    0.01410000
opls_523-40    C    0.66097006    0.71826003    0.00000000    -0.12780000
opls_700-41    C    0.64014000    0.83826004    0.00000000    -0.04580000
opls_700-42    C    0.63510004    0.74968993    0.00000000    -0.07060000
opls_234-43    C    0.57901985    0.80994992    0.00000000    0.42100000
opls_234-44    C    0.57418988    0.72259992    0.00000000    0.41860000
opls_142-45    C    0.45367989    0.73840003    0.00000000    0.02080000
opls_700-46    C    0.39208012    0.69970995    0.00000000    -0.13360000
opls_166-47    C    0.36589003    0.64096995    0.00000000    0.24230000
opls_916-48    C    0.75179989    0.80095996    0.00000000    0.16480000
opls_166-49    C    0.04574978    0.05396981    0.00000000    0.22950000
opls_145-50    C    0.71789999    0.74343020    0.00000000    -0.16840000
opls_700-51    C    0.95361022    0.94557028    0.00000000    -0.12910000
opls_142-52    C    0.90469001    0.88791012    0.00000000    0.03060000
opls_145-53    C    0.10825015    0.86344009    0.00000000    -0.17280000
opls_145-54    C    0.07783990    0.80619992    0.00000000    -0.13930000
opls_700-55    C    0.16609024    0.89197028    0.00000000    0.00180000
opls_523-56    C    0.10418014    0.77553022    0.00000000    -0.12840000
opls_700-57    C    0.19275008    0.85982008    0.00000000    0.01410000
opls_523-58    C    0.28174014    0.94271006    0.00000000    -0.12780000
opls_700-59    C    0.16174023    0.80188018    0.00000000    -0.04580000
opls_700-60    C    0.25031004    0.88541025    0.00000000    -0.07060000
opls_234-61    C    0.19005021    0.76907015    0.00000000    0.42100000
opls_234-62    C    0.27739987    0.85158990    0.00000000    0.41870000
opls_142-63    C    0.26160015    0.71528010    0.00000000    0.02080000
opls_700-64    C    0.30029008    0.69236997    0.00000000    -0.13360000
opls_166-65    C    0.35903001    0.72492002    0.00000000    0.24230000
opls_526-66    H    0.32624000    0.96334000    0.00000000    0.11520000
opls_168-67    H    0.88340008    0.01191024    0.00000000    0.30020000
opls_146-68    H    0.28281014    0.01876029    0.00000000    0.11520000
opls_910-69    H    0.20924994    0.03129004    0.00000000    0.21000000
opls_144-70    H    0.94589992    0.08919991    0.00000000    0.11500000
opls_146-71    H    0.11626997    0.20137001    0.00000000    0.24430000
opls_146-72    H    0.21343012    0.24917017    0.00000000    0.24440000
opls_526-73    H    0.26890984    0.34830989    0.00000000    0.11520000
opls_144-74    H    0.31369005    0.53227999    0.00000000    0.10420000
opls_168-75    H    0.19568015    0.56405997    0.00000000    0.36070000
opls_526-76    H    0.03665992    0.36290017    0.00000000    0.11520000
opls_168-77    H    0.98808989    0.87149008    0.00000000    0.30020000
opls_146-78    H    0.98124021    0.26405006    0.00000000    0.11520000
opls_910-79    H    0.96870999    0.17796007    0.00000000    0.21000000
opls_144-80    H    0.91080009    0.85670029    0.00000000    0.11500000
opls_146-81    H    0.79862999    0.91490016    0.00000000    0.24430000
opls_146-82    H    0.75083015    0.96426022    0.00000000    0.24440000
opls_526-83    H    0.65169011    0.92060003    0.00000000    0.11520000
opls_144-84    H    0.46772010    0.78141027    0.00000000    0.10420000
opls_168-85    H    0.43594005    0.63162004    0.00000000    0.36060000
opls_526-86    H    0.63710028    0.67376024    0.00000000    0.11520000
opls_168-87    H    0.12850988    0.11660009    0.00000000    0.30020000
opls_146-88    H    0.73594986    0.71719007    0.00000000    0.11520000
opls_910-89    H    0.82204027    0.79075030    0.00000000    0.21000000
opls_144-90    H    0.14329999    0.05409980    0.00000000    0.11500000
opls_146-91    H    0.08510025    0.88373024    0.00000000    0.24430000
opls_146-92    H    0.03573994    0.78657001    0.00000000    0.24440000
opls_526-93    H    0.07940005    0.73109008    0.00000000    0.11520000
opls_144-94    H    0.21859006    0.68631015    0.00000000    0.10420000
opls_168-95    H    0.36838016    0.80431999    0.00000000    0.36060000
opls_750-96    N    0.12375014    0.97726017    0.00000000    -0.17830000
opls_238-97    N    0.17899995    0.98961016    0.00000000    -0.25030000
opls_251-98    N    0.20505009    0.45213011    0.00000000    -0.05510000
opls_750-99    N    0.23248996    0.51057022    0.00000000    -0.18950000
opls_750-100    N    0.02273976    0.14648985    0.00000000    -0.17830000
opls_238-101    N    0.01038997    0.18938984    0.00000000    -0.25030000
opls_251-102    N    0.54787003    0.75291997    0.00000000    -0.05510000
opls_750-103    N    0.48942987    0.72191994    0.00000000    -0.18950000
opls_750-104    N    0.85351010    0.87624998    0.00000000    -0.17830000
opls_238-105    N    0.81061008    0.82100000    0.00000000    -0.25030000
opls_251-106    N    0.24707988    0.79494992    0.00000000    -0.05510000
opls_750-107    N    0.27808003    0.76751025    0.00000000    -0.18950000
