#======================================================================
# Crystal Data Generated By AuToFF
#----------------------------------------------------------------------

data_AuToFF_phase_1

_cell_length_a                         22.8088
_cell_length_b                         3.4773
_cell_length_c                         22.7682
_cell_angle_alpha                      90.00
_cell_angle_beta                       60.00
_cell_angle_gamma                      90.00
_symmetry_space_group_name_H-M_alt     'P 1'
_symmetry_space_group_IT_number        1

loop_
_space_group_symop_operation_xyz
   'x, y, z'

loop_
   _atom_site_label
   _atom_site_type_symbol
   _atom_site_fract_x
   _atom_site_fract_y
   _atom_site_fract_z
   _atom_site_charge
opls_641-0    N    0.27936990    0.50000000    0.40996985    -0.41510000
opls_641-1    N    0.29943980    0.50000000    0.29874013    -0.40680000
opls_641-2    N    0.39029006    0.50000000    0.31937017    -0.41900000
opls_641-3    N    0.59149979    0.50000000    0.69716003    -0.41980000
opls_641-4    N    0.70336025    0.50000000    0.60868990    -0.42230000
opls_641-5    N    0.68020013    0.50000000    0.72106985    -0.41750000
opls_642-6    C    0.25561996    0.50000000    0.36598989    0.41170000
opls_642-7    C    0.36689004    0.50000000    0.27515996    0.37570000
opls_642-8    C    0.34659995    0.50000000    0.38685018    0.41090000
opls_142-9    C    0.41528987    0.50000000    0.20199018    -0.20820000
opls_142-10    C    0.39537012    0.50000000    0.15535018    -0.16850000
opls_700-11    C    0.44153034    0.50000000    0.08014975    0.01820000
opls_166-12    C    0.41605994    0.50000000    0.03403010    0.36720000
opls_145-13    C    0.46065007    0.50000000    0.96444996    -0.18470000
opls_700-14    C    0.53089988    0.50000000    0.93767015    0.10130000
opls_145-15    C    0.55596012    0.50000000    0.98260002    -0.12040000
opls_145-16    C    0.51240006    0.50000000    0.05240990    -0.11250000
opls_142-17    C    0.18273004    0.50000000    0.39007011    -0.21580000
opls_142-18    C    0.37098000    0.50000000    0.43572978    -0.21940000
opls_142-19    C    0.43697984    0.50000000    0.41656997    -0.09270000
opls_142-20    C    0.13621017    0.50000000    0.45610980    -0.13590000
opls_142-21    C    0.57994996    0.50000000    0.86388976    -0.12680000
opls_142-22    C    0.56287009    0.50000000    0.81527997    -0.21520000
opls_642-23    C    0.61310994    0.50000000    0.74277000    0.41090000
opls_642-24    C    0.63647015    0.50000000    0.63004011    0.37220000
opls_642-25    C    0.72544021    0.50000000    0.65407976    0.37090000
opls_142-26    C    0.79806983    0.50000000    0.63164018    -0.21520000
opls_142-27    C    0.84555998    0.50000000    0.56597021    -0.12790000
opls_142-28    C    0.61370021    0.50000000    0.57980996    -0.21630000
opls_142-29    C    0.54804989    0.50000000    0.59768007    -0.11930000
opls_700-30    C    0.46477002    0.50000000    0.46361975    -0.00090000
opls_700-31    C    0.06174975    0.50000000    0.48360013    -0.00090000
opls_166-32    C    0.01879975    0.50000000    0.55441012    0.26960000
opls_145-33    C    0.94845016    0.50000000    0.58201000    -0.22410000
opls_700-34    C    0.91955999    0.50000000    0.53991005    0.13040000
opls_145-35    C    0.96247010    0.50000000    0.46970003    -0.11350000
opls_145-36    C    0.03249002    0.50000000    0.44168986    -0.11460000
opls_166-37    C    0.53551013    0.50000000    0.43612992    0.26960000
opls_145-38    C    0.56340007    0.50000000    0.47896017    -0.22770000
opls_700-39    C    0.52166003    0.50000000    0.54967988    0.13040000
opls_145-40    C    0.45152993    0.50000000    0.57660018    -0.11750000
opls_145-41    C    0.42323978    0.50000000    0.53449009    -0.11450000
opls_167-42    O    0.34746014    0.50000000    0.05306007    -0.46320000
opls_167-43    O    0.04675990    0.50000000    0.59701012    -0.44000000
opls_167-44    O    0.57776001    0.50000000    0.36586005    -0.39770000
opls_144-45    H    0.46770007    0.50000000    0.18834010    0.10090000
opls_144-46    H    0.34173016    0.50000000    0.17494005    0.11160000
opls_146-47    H    0.43818998    0.50000000    0.93257020    0.12660000
opls_146-48    H    0.60991999    0.50000000    0.96354976    0.12630000
opls_146-49    H    0.53563993    0.50000000    0.08363999    0.12980000
opls_144-50    H    0.16867999    0.50000000    0.35134984    0.10230000
opls_144-51    H    0.33248968    0.50000000    0.48825023    0.11160000
opls_144-52    H    0.47355007    0.50000000    0.36282017    0.12110000
opls_144-53    H    0.15336000    0.50000000    0.49295004    0.11370000
opls_144-54    H    0.63314990    0.50000000    0.84871010    0.12070000
opls_144-55    H    0.51087975    0.50000000    0.82727013    0.12810000
opls_144-56    H    0.81117979    0.50000000    0.67105018    0.11630000
opls_144-57    H    0.82919000    0.50000000    0.52864005    0.11880000
opls_144-58    H    0.65282987    0.50000000    0.52755018    0.11160000
opls_144-59    H    0.51099004    0.50000000    0.65113978    0.12320000
opls_168-60    H    0.31360001    0.50000000    0.10265019    0.36940000
opls_146-61    H    0.91749019    0.50000000    0.63621979    0.11160000
opls_146-62    H    0.94161002    0.50000000    0.43607008    0.11740000
opls_146-63    H    0.06271012    0.50000000    0.38731981    0.10090000
opls_146-64    H    0.61752998    0.50000000    0.45600989    0.10090000
opls_146-65    H    0.41817016    0.50000000    0.63087995    0.12510000
opls_146-66    H    0.36893023    0.50000000    0.55835984    0.12180000
opls_168-67    H    0.01220016    0.50000000    0.64691974    0.39620000
opls_168-68    H    0.62763022    0.50000000    0.35078994    0.34900000
