#======================================================================
# Crystal Data Generated By AuToFF
#----------------------------------------------------------------------

data_AuToFF_phase_1

_cell_length_a                         75.4613
_cell_length_b                         75.4613
_cell_length_c                         3.5990
_cell_angle_alpha                      90.00
_cell_angle_beta                       90.00
_cell_angle_gamma                      120.00
_symmetry_space_group_name_H-M_alt     'P 1'
_symmetry_space_group_IT_number        1

loop_
_space_group_symop_operation_xyz
   'x, y, z'

loop_
   _atom_site_label
   _atom_site_type_symbol
   _atom_site_fract_x
   _atom_site_fract_y
   _atom_site_fract_z
   _atom_site_charge
opls_145-0    C    0.00923003    0.49900997    0.83487913    -0.12620000
opls_700-1    C    0.02190997    0.52020003    0.80813004    -0.02300000
opls_166-2    C    0.01322994    0.53309998    0.80974993    0.27640000
opls_261-3    C    0.04340992    0.52800996    0.74524034    -0.11340000
opls_261-4    C    0.06138002    0.53460002    0.68993887    -0.11210000
opls_700-5    C    0.08284006    0.54265004    0.62287024    0.12100000
opls_145-6    C    0.09106992    0.52965996    0.62944985    -0.11750000
opls_145-7    C    0.11196000    0.53753003    0.56632954    -0.12350000
opls_700-8    C    0.12484006    0.55848000    0.49657961    0.07150000
opls_145-9    C    0.11644003    0.57144009    0.48896082    -0.12710000
opls_145-10    C    0.09553999    0.56354003    0.55143095    -0.11500000
opls_142-11    C    0.14689003    0.56647004    0.43570992    0.07290000
opls_145-12    C    0.50230001    0.01195001    0.83652959    -0.12770000
opls_166-13    C    0.53251990    0.00817993    0.81158099    0.27640000
opls_700-14    C    0.52353999    0.02080001    0.81151987    -0.02300000
opls_261-15    C    0.53540993    0.04257996    0.75237010    -0.11340000
opls_261-16    C    0.54540995    0.06075998    0.70078911    -0.09720000
opls_700-17    C    0.55752008    0.08243006    0.63898027    0.12640000
opls_145-18    C    0.57826001    0.09120998    0.54804112    -0.11440000
opls_145-19    C    0.59014000    0.11231007    0.49188108    -0.12210000
opls_700-20    C    0.58140002    0.12486006    0.52547096    0.06860000
opls_145-21    C    0.56050995    0.11590999    0.61517922    -0.12840000
opls_145-22    C    0.54865996    0.09479996    0.67175882    -0.11570000
opls_142-23    C    0.59431007    0.14714008    0.46928869    0.07130000
opls_531-24    C    0.31249008    0.65682005    0.16899972    0.36210000
opls_700-25    C    0.35627005    0.71012006    0.17894971    0.00030000
opls_523-26    C    0.37722993    0.72057997    0.09335927    -0.12210000
opls_145-27    C    0.38860997    0.74191999    0.11113087    -0.12550000
opls_700-28    C    0.37933005    0.75330001    0.21923034    0.06980000
opls_145-29    C    0.35831003    0.74277996    0.30302862    -0.12320000
opls_523-30    C    0.34689005    0.72145998    0.28078077    -0.12070000
opls_700-31    C    0.39157005    0.77597006    0.25186996    0.06990000
opls_145-32    C    0.41195010    0.78561010    0.37764101    -0.12320000
opls_145-33    C    0.42325996    0.80685004    0.41694082    -0.16630000
opls_145-34    C    0.41445005    0.81891008    0.33789942    0.19490000
opls_145-35    C    0.39423007    0.80943010    0.20427897    -0.16440000
opls_145-36    C    0.38294995    0.78819000    0.16153932    -0.12710000
opls_531-37    C    0.65724998    0.31251006    0.34168102    0.36210000
opls_700-38    C    0.64289002    0.35298004    0.34836899    0.00070000
opls_523-39    C    0.65182994    0.37387998    0.26327869    -0.12210000
opls_145-40    C    0.64021000    0.38360005    0.27469019    -0.12320000
opls_700-41    C    0.61943003    0.37270005    0.37544874    0.07010000
opls_145-42    C    0.61050995    0.35176002    0.45991109    -0.12450000
opls_523-43    C    0.62207009    0.34199007    0.44440122    -0.12020000
opls_700-44    C    0.60718002    0.38314007    0.39731870    0.07040000
opls_145-45    C    0.61606993    0.40341997    0.52515977    -0.12350000
opls_145-46    C    0.60445002    0.41309000    0.55156988    -0.16810000
opls_145-47    C    0.58372003    0.40276995    0.45482078    0.19650000
opls_145-48    C    0.57479001    0.38255003    0.32138927    -0.16590000
opls_145-49    C    0.58643994    0.37288995    0.29310086    -0.12620000
opls_181-50    C    0.43438999    0.47740003    0.98515977    -0.19530000
opls_181-51    C    0.46552999    0.43244996    0.98963045    -0.19530000
opls_145-52    C    0.50098993    0.51021998    0.83487913    -0.12620000
opls_700-53    C    0.47980003    0.50170999    0.80813004    -0.02300000
opls_166-54    C    0.46689996    0.48013004    0.80974993    0.27640000
opls_261-55    C    0.47198996    0.51539998    0.74524034    -0.11340000
opls_261-56    C    0.46540003    0.52677999    0.68993887    -0.11210000
opls_700-57    C    0.45735004    0.54018996    0.62287024    0.12100000
opls_145-58    C    0.47033996    0.56141001    0.62944985    -0.11750000
opls_145-59    C    0.46247004    0.57443008    0.56632954    -0.12350000
opls_700-60    C    0.44151998    0.56636002    0.49657961    0.07150000
opls_145-61    C    0.42855997    0.54499995    0.48896082    -0.12710000
opls_145-62    C    0.43646000    0.53200008    0.55143095    -0.11500000
opls_142-63    C    0.43352996    0.58042001    0.43570992    0.07290000
opls_145-64    C    0.98804996    0.49035002    0.83652959    -0.12770000
opls_166-65    C    0.99182001    0.52433995    0.81158099    0.27640000
opls_700-66    C    0.97920001    0.50273996    0.81151987    -0.02300000
opls_261-67    C    0.95741998    0.49282999    0.75237010    -0.11340000
opls_261-68    C    0.93924001    0.48465006    0.70078911    -0.09720000
opls_700-69    C    0.91757002    0.47509005    0.63898027    0.12640000
opls_145-70    C    0.90878998    0.48705001    0.54804112    -0.11440000
opls_145-71    C    0.88768994    0.47783001    0.49188108    -0.12210000
opls_700-72    C    0.87514000    0.45654003    0.52547096    0.06860000
opls_145-73    C    0.88408993    0.44459996    0.61517922    -0.12840000
opls_145-74    C    0.90520008    0.45386006    0.67175882    -0.11570000
opls_142-75    C    0.85286004    0.44717007    0.46928869    0.07130000
opls_531-76    C    0.34317993    0.65566996    0.16899972    0.36210000
opls_700-77    C    0.28987999    0.64615004    0.17894971    0.00030000
opls_523-78    C    0.27942009    0.65665005    0.09335927    -0.12210000
opls_145-79    C    0.25808005    0.64669005    0.11113087    -0.12550000
opls_700-80    C    0.24669997    0.62603005    0.21923034    0.06980000
opls_145-81    C    0.25722004    0.61553004    0.30302862    -0.12320000
opls_523-82    C    0.27854003    0.62543006    0.28078077    -0.12070000
opls_700-83    C    0.22403003    0.61559997    0.25186996    0.06990000
opls_145-84    C    0.21438999    0.62634006    0.37764101    -0.12320000
opls_145-85    C    0.19315003    0.61641005    0.41694082    -0.16630000
opls_145-86    C    0.18109004    0.59553996    0.33789942    0.19490000
opls_145-87    C    0.19057007    0.58480002    0.20427897    -0.16440000
opls_145-88    C    0.21181006    0.59476002    0.16153932    -0.12710000
opls_531-89    C    0.68748992    0.34473997    0.34168102    0.36210000
opls_700-90    C    0.64702008    0.28991009    0.34836899    0.00070000
opls_523-91    C    0.62611992    0.27794998    0.26327869    -0.12210000
opls_145-92    C    0.61639994    0.25660996    0.27469019    -0.12320000
opls_700-93    C    0.62729999    0.24672999    0.37544874    0.07010000
opls_145-94    C    0.64824007    0.25875008    0.45991109    -0.12450000
opls_523-95    C    0.65801000    0.28008000    0.44440122    -0.12020000
opls_700-96    C    0.61685998    0.22404004    0.39731870    0.07040000
opls_145-97    C    0.59658004    0.21265007    0.52515977    -0.12350000
opls_145-98    C    0.58690991    0.19135994    0.55156988    -0.16810000
opls_145-99    C    0.59723002    0.18095006    0.45482078    0.19650000
opls_145-100    C    0.61744998    0.19223995    0.32138927    -0.16590000
opls_145-101    C    0.62711005    0.21354998    0.29310086    -0.12620000
opls_181-102    C    0.52260002    0.95699006    0.98515977    -0.19530000
opls_181-103    C    0.56754995    0.03307993    0.98963045    -0.19530000
opls_145-104    C    0.48978003    0.99077005    0.83487913    -0.12620000
opls_700-105    C    0.49829000    0.97808999    0.80813004    -0.02300000
opls_166-106    C    0.51986996    0.98676999    0.80974993    0.27640000
opls_261-107    C    0.48459999    0.95659007    0.74524034    -0.11340000
opls_261-108    C    0.47321994    0.93861998    0.68993887    -0.11210000
opls_700-109    C    0.45981003    0.91716000    0.62287024    0.12100000
opls_145-110    C    0.43858999    0.90893003    0.62944985    -0.11750000
opls_145-111    C    0.42557003    0.88804004    0.56632954    -0.12340000
opls_700-112    C    0.43363996    0.87515998    0.49657961    0.07150000
opls_145-113    C    0.45500008    0.88356011    0.48896082    -0.12710000
opls_145-114    C    0.46799996    0.90446004    0.55143095    -0.11500000
opls_142-115    C    0.41958009    0.85311011    0.43570992    0.07290000
opls_145-116    C    0.50965003    0.49769997    0.83652959    -0.12770000
opls_166-117    C    0.47566001    0.46747996    0.81158099    0.27640000
opls_700-118    C    0.49726001    0.47646003    0.81151987    -0.02300000
opls_261-119    C    0.50716996    0.46459005    0.75237010    -0.11340000
opls_261-120    C    0.51534991    0.45458996    0.70078911    -0.09720000
opls_700-121    C    0.52490998    0.44248004    0.63898027    0.12640000
opls_145-122    C    0.51295001    0.42174001    0.54804112    -0.11440000
opls_145-123    C    0.52217000    0.40986008    0.49188108    -0.12210000
opls_700-124    C    0.54346006    0.41860006    0.52547096    0.06870000
opls_145-125    C    0.55539999    0.43949005    0.61517922    -0.12840000
opls_145-126    C    0.54613996    0.45133999    0.67175882    -0.11570000
opls_142-127    C    0.55282996    0.40569001    0.46928869    0.07130000
opls_531-128    C    0.34432999    0.68750998    0.16899972    0.36220000
opls_700-129    C    0.35385003    0.64373005    0.17894971    0.00030000
opls_523-130    C    0.34334998    0.62276998    0.09335927    -0.12210000
opls_145-131    C    0.35330998    0.61138996    0.11113087    -0.12550000
opls_700-132    C    0.37397005    0.62067010    0.21923034    0.06980000
opls_145-133    C    0.38447006    0.64169000    0.30302862    -0.12320000
opls_523-134    C    0.37456992    0.65310996    0.28078077    -0.12070000
opls_700-135    C    0.38439992    0.60842996    0.25186996    0.06990000
opls_145-136    C    0.37365999    0.58804999    0.37764101    -0.12320000
opls_145-137    C    0.38358996    0.57674005    0.41694082    -0.16630000
opls_145-138    C    0.40446005    0.58554997    0.33789942    0.19490000
opls_145-139    C    0.41520007    0.60577004    0.20427897    -0.16440000
opls_145-140    C    0.40523999    0.61704998    0.16153932    -0.12710000
opls_531-141    C    0.65525997    0.34274996    0.34168102    0.36210000
opls_700-142    C    0.71008998    0.35711002    0.34836899    0.00070000
opls_523-143    C    0.72205001    0.34817005    0.26327869    -0.12210000
opls_145-144    C    0.74339006    0.35979000    0.27469019    -0.12320000
opls_700-145    C    0.75326998    0.38056996    0.37544874    0.07010000
opls_145-146    C    0.74125005    0.38949005    0.45991109    -0.12450000
opls_523-147    C    0.71991998    0.37793008    0.44440122    -0.12020000
opls_700-148    C    0.77596007    0.39282005    0.39731870    0.07040000
opls_145-149    C    0.78735003    0.38392995    0.52515977    -0.12350000
opls_145-150    C    0.80864007    0.39555006    0.55156988    -0.16810000
opls_145-151    C    0.81904996    0.41627999    0.45482078    0.19650000
opls_145-152    C    0.80776001    0.42521002    0.32138927    -0.16590000
opls_145-153    C    0.78645001    0.41356008    0.29310086    -0.12620000
opls_181-154    C    0.04301007    0.56561007    0.98515977    -0.19530000
opls_181-155    C    0.96691998    0.53446996    0.98963045    -0.19530000
opls_750-156    N    0.58656996    0.15907999    0.49711864    -0.33320000
opls_750-157    N    0.15938002    0.58596006    0.39412059    -0.34490000
opls_520-158    N    0.32355000    0.67759007    0.16933871    -0.47180000
opls_520-159    N    0.64599006    0.32201009    0.34190886    -0.47060000
opls_750-160    N    0.84091999    0.42749000    0.49711864    -0.33330000
opls_750-161    N    0.41404004    0.57342000    0.39412059    -0.34500000
opls_520-162    N    0.32241004    0.64595999    0.16933871    -0.47170000
opls_520-163    N    0.67799002    0.32398005    0.34190886    -0.47060000
opls_750-164    N    0.57251006    0.41343001    0.49711864    -0.33330000
opls_750-165    N    0.42658002    0.84062009    0.39412059    -0.34500000
opls_520-166    N    0.35404004    0.67645008    0.16933871    -0.47170000
opls_520-167    N    0.67602000    0.35401001    0.34190886    -0.47060000
opls_179-168    O    0.52959002    0.97509005    0.76637955    -0.20350000
opls_179-169    O    0.98411999    0.53782995    0.77011948    -0.19460000
opls_179-170    O    0.02491005    0.55449998    0.76637955    -0.20350000
opls_179-171    O    0.46217006    0.44629006    0.77011948    -0.19460000
opls_179-172    O    0.44549993    0.47040997    0.76637955    -0.20350000
opls_179-173    O    0.55370995    0.01588000    0.77011948    -0.19460000
opls_146-174    H    0.01571995    0.48904002    0.83667963    0.11650000
opls_146-175    H    0.08135991    0.51346995    0.68457905    0.11630000
opls_146-176    H    0.11808997    0.52726001    0.57380106    0.11630000
opls_146-177    H    0.12598002    0.58765000    0.43472909    0.12030000
opls_146-178    H    0.08929001    0.57370997    0.54437899    0.11710000
opls_144-179    H    0.15254008    0.55582007    0.44138927    0.09030000
opls_146-180    H    0.49529990    0.02146993    0.83959989    0.12120000
opls_146-181    H    0.58524002    0.08175005    0.52086135    0.11850000
opls_146-182    H    0.60616999    0.11884994    0.42218116    0.11850000
opls_146-183    H    0.55335000    0.12520007    0.64375938    0.11850000
opls_146-184    H    0.53263009    0.08815006    0.74273131    0.11780000
opls_144-185    H    0.61039004    0.15324002    0.41272020    0.12350000
opls_526-186    H    0.38485005    0.71229002    0.00951931    0.11850000
opls_146-187    H    0.40464007    0.74950009    0.03656016    0.12220000
opls_146-188    H    0.35073999    0.75096999    0.39514032    0.12260000
opls_526-189    H    0.33081005    0.71385005    0.35230064    0.11990000
opls_146-190    H    0.41903004    0.77673011    0.45514032    0.11940000
opls_146-191    H    0.43883005    0.81394002    0.51859961    0.12030000
opls_146-192    H    0.38716999    0.81829999    0.12540984    0.12350000
opls_146-193    H    0.36755001    0.78137010    0.05225896    0.12030000
opls_526-194    H    0.66777998    0.38272003    0.18405113    0.12030000
opls_146-195    H    0.64748002    0.39962005    0.20018061    0.12260000
opls_146-196    H    0.59468002    0.34299005    0.54626007    0.11960000
opls_526-197    H    0.61477995    0.32592003    0.51534871    0.11950000
opls_146-198    H    0.63189002    0.41169003    0.61372048    0.12260000
opls_146-199    H    0.61155002    0.42864009    0.65490136    0.11500000
opls_146-200    H    0.55903006    0.37415006    0.23267019    0.12600000
opls_146-201    H    0.57925007    0.35748002    0.18337038    0.11990000
opls_185-202    H    0.42208009    0.46419006    0.13709919    0.07440000
opls_185-203    H    0.42713000    0.48371007    0.80043901    0.07440000
opls_185-204    H    0.44404994    0.48918998    0.19133093    0.07390000
opls_185-205    H    0.46924004    0.42298007    0.80549875    0.07490000
opls_185-206    H    0.45122995    0.42208996    0.14125868    0.07440000
opls_185-207    H    0.47794005    0.44026004    0.19617949    0.07380000
opls_146-208    H    0.51096007    0.52668007    0.83667963    0.11650000
opls_146-209    H    0.48653006    0.56789005    0.68457905    0.11630000
opls_146-210    H    0.47274008    0.59083004    0.57380106    0.11630000
opls_146-211    H    0.41235006    0.53833001    0.43472909    0.12030000
opls_146-212    H    0.42629005    0.51558008    0.54437899    0.11710000
opls_144-213    H    0.44418006    0.59672004    0.44138927    0.09020000
opls_146-214    H    0.97853002    0.47383009    0.83959989    0.12120000
opls_146-215    H    0.91824998    0.50349006    0.52086135    0.11850000
opls_146-216    H    0.88114999    0.48732009    0.42218116    0.11850000
opls_146-217    H    0.87480002    0.42814997    0.64375938    0.11850000
opls_146-218    H    0.91185004    0.44448000    0.74273131    0.11780000
opls_144-219    H    0.84675993    0.45714996    0.41272020    0.12350000
opls_526-220    H    0.28770996    0.67256004    0.00951931    0.11850000
opls_146-221    H    0.25050006    0.65514006    0.03656016    0.12220000
opls_146-222    H    0.24903006    0.59977001    0.39514032    0.12260000
opls_526-223    H    0.28615001    0.61696000    0.35230064    0.11990000
opls_146-224    H    0.22327007    0.64230009    0.45514032    0.11940000
opls_146-225    H    0.18605998    0.62489006    0.51859961    0.12030000
opls_146-226    H    0.18169995    0.56886999    0.12540984    0.12350000
opls_146-227    H    0.21863003    0.58618010    0.05225896    0.12030000
opls_526-228    H    0.61727997    0.28506000    0.18405113    0.12030000
opls_146-229    H    0.60038006    0.24786003    0.20018061    0.12260000
opls_146-230    H    0.65700995    0.25168994    0.54626007    0.11960000
opls_526-231    H    0.67408007    0.28886007    0.51534871    0.11950000
opls_146-232    H    0.58831004    0.22020003    0.61372048    0.12260000
opls_146-233    H    0.57136011    0.18291008    0.65490136    0.11500000
opls_146-234    H    0.62585000    0.18488005    0.23267019    0.12600000
opls_146-235    H    0.64252002    0.22177000    0.18337038    0.11990000
opls_185-236    H    0.53581010    0.95789011    0.13709919    0.07440000
opls_185-237    H    0.51628995    0.94342003    0.80043901    0.07440000
opls_185-238    H    0.51081004    0.95486003    0.19133093    0.07390000
opls_185-239    H    0.57702004    0.04626006    0.80549875    0.07490000
opls_185-240    H    0.57791002    0.02914000    0.14125868    0.07440000
opls_185-241    H    0.55974003    0.03767999    0.19617949    0.07380000
opls_146-242    H    0.47332005    0.98428006    0.83667963    0.11650000
opls_146-243    H    0.43211003    0.91864000    0.68457905    0.11630000
opls_146-244    H    0.40917002    0.88191010    0.57380106    0.11630000
opls_146-245    H    0.46167005    0.87401999    0.43472909    0.12030000
opls_146-246    H    0.48442001    0.91071010    0.54437899    0.11710000
opls_144-247    H    0.40328007    0.84746004    0.44138927    0.09020000
opls_146-248    H    0.52616995    0.50469998    0.83959989    0.12120000
opls_146-249    H    0.49651008    0.41476005    0.52086135    0.11850000
opls_146-250    H    0.51268002    0.39382997    0.42218116    0.11850000
opls_146-251    H    0.57184998    0.44664996    0.64375938    0.11850000
opls_146-252    H    0.55552008    0.46737009    0.74273131    0.11780000
opls_144-253    H    0.54285003    0.38961002    0.41272020    0.12350000
opls_526-254    H    0.32744007    0.61515010    0.00951931    0.11850000
opls_146-255    H    0.34485995    0.59536001    0.03656016    0.12220000
opls_146-256    H    0.40022994    0.64926000    0.39514032    0.12260000
opls_526-257    H    0.38304002    0.66919010    0.35230064    0.11990000
opls_146-258    H    0.35769996    0.58096996    0.45514032    0.11940000
opls_146-259    H    0.37511005    0.56117007    0.51859961    0.12030000
opls_146-260    H    0.43113006    0.61283002    0.12540984    0.12350000
opls_146-261    H    0.41382004    0.63244996    0.05225896    0.12030000
opls_526-262    H    0.71494005    0.33221997    0.18405113    0.12040000
opls_146-263    H    0.75213999    0.35252007    0.20018061    0.12260000
opls_146-264    H    0.74831003    0.40532001    0.54626007    0.11960000
opls_526-265    H    0.71114006    0.38522006    0.51534871    0.12260000
opls_146-266    H    0.77979994    0.36810994    0.61372048    0.12260000
opls_146-267    H    0.81708996    0.38844998    0.65490136    0.11500000
opls_146-268    H    0.81512002    0.44097005    0.23267019    0.12600000
opls_146-269    H    0.77823003    0.42074998    0.18337038    0.11990000
opls_185-270    H    0.04211002    0.57791998    0.13709919    0.07440000
opls_185-271    H    0.05657999    0.57287005    0.80043901    0.07440000
opls_185-272    H    0.04514002    0.55594999    0.19133093    0.07380000
opls_185-273    H    0.95374000    0.53076001    0.80549875    0.07490000
opls_185-274    H    0.97086003    0.54877003    0.14125868    0.07440000
opls_185-275    H    0.96232005    0.52205997    0.19617949    0.07380000
