#======================================================================
# Crystal Data Generated By AuToFF
#----------------------------------------------------------------------

data_AuToFF_phase_1

_cell_length_a                         29.7000
_cell_length_b                         29.7000
_cell_length_c                         3.4000
_cell_angle_alpha                      90.00
_cell_angle_beta                       90.00
_cell_angle_gamma                      120.00
_symmetry_space_group_name_H-M_alt     'P 1'
_symmetry_space_group_IT_number        1

loop_
_space_group_symop_operation_xyz
   'x, y, z'

loop_
   _atom_site_label
   _atom_site_type_symbol
   _atom_site_fract_x
   _atom_site_fract_y
   _atom_site_fract_z
   _atom_site_charge
opls_916-0    C    0.94664013    0.47573010    0.50000000    0.18960000
opls_916-1    C    0.52426996    0.47090018    0.50000000    0.18970000
opls_916-2    C    0.52909987    0.05336000    0.50000000    0.18960000
opls_916-3    C    0.05335987    0.52426990    0.50000000    0.18960000
opls_916-4    C    0.47573024    0.52910021    0.50000000    0.18960000
opls_916-5    C    0.47090013    0.94664000    0.50000000    0.18960000
opls_142-6    C    0.38816012    0.86055997    0.50000000    0.10610000
opls_142-7    C    0.13944020    0.52760026    0.50000000    0.10600000
opls_142-8    C    0.47240021    0.61184015    0.50000000    0.10600000
opls_142-9    C    0.61183988    0.13944003    0.50000000    0.10610000
opls_142-10    C    0.86056000    0.47240013    0.50000000    0.10600000
opls_142-11    C    0.52759998    0.38816024    0.50000000    0.10600000
opls_142-12    C    0.36422989    0.80929009    0.50000000    -0.28500000
opls_142-13    C    0.19071018    0.55494023    0.50000000    -0.28500000
opls_142-14    C    0.44506012    0.63577006    0.50000000    -0.28500000
opls_142-15    C    0.63577011    0.19070991    0.50000000    -0.28500000
opls_142-16    C    0.80929001    0.44506016    0.50000000    -0.28500000
opls_142-17    C    0.55493988    0.36422994    0.50000000    -0.28500000
opls_700-18    C    0.36007002    0.72079997    0.50000000    0.04610000
opls_700-19    C    0.27920014    0.63926021    0.50000000    0.04620000
opls_700-20    C    0.36074014    0.63994020    0.50000000    0.04620000
opls_700-21    C    0.63994008    0.27920003    0.50000000    0.04670000
opls_700-22    C    0.72080005    0.36074017    0.50000000    0.04620000
opls_700-23    C    0.63925987    0.36006990    0.50000000    0.04610000
opls_280-24    C    0.38989991    0.77736009    0.50000000    0.29190000
opls_280-25    C    0.22264002    0.61253997    0.50000000    0.29190000
opls_280-26    C    0.38746007    0.61009994    0.50000000    0.29190000
opls_280-27    C    0.61010009    0.22263991    0.50000000    0.29180000
opls_280-28    C    0.77735998    0.38746003    0.50000000    0.29190000
opls_280-29    C    0.61253993    0.38990006    0.50000000    0.29190000
opls_145-30    C    0.38709014    0.69382002    0.50000000    -0.09250000
opls_145-31    C    0.30619002    0.69327027    0.50000000    -0.09240000
opls_145-32    C    0.30673013    0.61291010    0.50000000    -0.09250000
opls_145-33    C    0.61291020    0.30619009    0.50000000    -0.09240000
opls_145-34    C    0.69381994    0.30673012    0.50000000    -0.09250000
opls_145-35    C    0.69326987    0.38708990    0.50000000    -0.09250000
opls_145-36    C    0.52996006    0.55432012    0.50000000    -0.20630000
opls_145-37    C    0.44567998    0.97564009    0.50000000    -0.20620000
opls_145-38    C    0.02436016    0.47004018    0.50000000    -0.20630000
opls_145-39    C    0.47003994    0.44567988    0.50000000    -0.20630000
opls_145-40    C    0.55432002    0.02435991    0.50000000    -0.20620000
opls_145-41    C    0.97564004    0.52996021    0.50000000    -0.20630000
opls_145-42    C    0.55398987    0.52512990    0.50000000    -0.17890000
opls_145-43    C    0.47486994    0.02886985    0.50000000    -0.17750000
opls_145-44    C    0.97112990    0.44600996    0.50000000    -0.17900000
opls_145-45    C    0.44601013    0.47487010    0.50000000    -0.17900000
opls_145-46    C    0.52513006    0.97114026    0.50000000    -0.17900000
opls_145-47    C    0.02887010    0.55399004    0.50000000    -0.17900000
opls_281-48    O    0.20314008    0.64008017    0.50000000    -0.37210000
opls_281-49    O    0.35991994    0.56306007    0.50000000    -0.37190000
opls_281-50    O    0.43694017    0.79686015    0.50000000    -0.37200000
opls_281-51    O    0.79686011    0.35992022    0.50000000    -0.37200000
opls_281-52    O    0.64008006    0.43693993    0.50000000    -0.37200000
opls_281-53    O    0.56305983    0.20313985    0.50000000    -0.37210000
opls_144-54    H    0.36348998    0.87760017    0.50000000    0.11070000
opls_144-55    H    0.12239984    0.48588991    0.50000000    0.11080000
opls_144-56    H    0.51410985    0.63650993    0.50000000    0.11070000
opls_144-57    H    0.63651002    0.12239983    0.50000000    0.11070000
opls_144-58    H    0.87760016    0.51411009    0.50000000    0.11070000
opls_144-59    H    0.48589015    0.36349007    0.50000000    0.11070000
opls_144-60    H    0.32263003    0.79128026    0.50000000    0.10230000
opls_144-61    H    0.20872018    0.53135013    0.50000000    0.10230000
opls_144-62    H    0.46864999    0.67737000    0.50000000    0.10230000
opls_144-63    H    0.67737017    0.20872013    0.50000000    0.10230000
opls_144-64    H    0.79128001    0.46865026    0.50000000    0.10230000
opls_144-65    H    0.53135001    0.32263000    0.50000000    0.10230000
opls_910-66    H    0.40912008    0.53210010    0.50000000    0.24510000
opls_910-67    H    0.46789995    0.87702009    0.50000000    0.24500000
opls_910-68    H    0.12299027    0.59088020    0.50000000    0.24500000
opls_910-69    H    0.59087992    0.46789990    0.50000000    0.24500000
opls_910-70    H    0.53210005    0.12297991    0.50000000    0.24500000
opls_910-71    H    0.87702003    0.40912019    0.50000000    0.24510000
opls_146-72    H    0.55439018    0.59590023    0.50000000    0.09020000
opls_146-73    H    0.40410001    0.95849026    0.50000000    0.09020000
opls_146-74    H    0.04151000    0.44560990    0.50000000    0.09020000
opls_146-75    H    0.44561001    0.40410016    0.50000000    0.09020000
opls_146-76    H    0.59590018    0.04151013    0.50000000    0.09020000
opls_146-77    H    0.95849000    0.55439010    0.50000000    0.09020000
opls_146-78    H    0.59606003    0.54487023    0.50000000    0.11060000
opls_146-79    H    0.45512992    0.05119990    0.50000000    0.11060000
opls_146-80    H    0.94879996    0.40393998    0.50000000    0.11060000
opls_146-81    H    0.40394016    0.45513016    0.50000000    0.11060000
opls_146-82    H    0.54487009    0.94881021    0.50000000    0.11060000
opls_146-83    H    0.05118994    0.59606002    0.50000000    0.11060000
opls_146-84    H    0.57123995    0.28391020    0.50000000    0.10230000
opls_146-85    H    0.71608991    0.28734009    0.50000000    0.10230000
opls_146-86    H    0.71267001    0.42876021    0.50000000    0.10230000
opls_146-87    H    0.42876025    0.71609019    0.50000000    0.10240000
opls_146-88    H    0.28391010    0.71267002    0.50000000    0.10230000
opls_146-89    H    0.28733995    0.57124018    0.50000000    0.10230000
opls_238-90    N    0.44335017    0.89214006    0.50000000    -0.26060000
opls_238-91    N    0.10785998    0.55121020    0.50000000    -0.26050000
opls_238-92    N    0.44879005    0.55665012    0.50000000    -0.26030000
opls_238-93    N    0.55664983    0.10785994    0.50000000    -0.26050000
opls_238-94    N    0.89214021    0.44879019    0.50000000    -0.26060000
opls_238-95    N    0.55121015    0.44335027    0.50000000    -0.26030000
