#======================================================================
# Crystal Data Generated By AuToFF
#----------------------------------------------------------------------

data_AuToFF_phase_1

_cell_length_a                         20.3196
_cell_length_b                         20.3196
_cell_length_c                         6.7336
_cell_angle_alpha                      90.00
_cell_angle_beta                       90.00
_cell_angle_gamma                      90.00
_symmetry_space_group_name_H-M_alt     'P 1'
_symmetry_space_group_IT_number        1

loop_
_space_group_symop_operation_xyz
   'x, y, z'

loop_
   _atom_site_label
   _atom_site_type_symbol
   _atom_site_fract_x
   _atom_site_fract_y
   _atom_site_fract_z
   _atom_site_charge
opls_166-0    C    0.32149009    0.03504990    0.50000000    0.31150000
opls_145-1    C    0.26157995    0.06974990    0.50000000    -0.22190000
opls_716-2    C    0.20359997    0.03329003    0.50000000    -0.01500000
opls_543-3    C    0.13877980    0.05237013    0.50000000    0.33750000
opls_166-4    C    0.43902980    0.03481023    0.50000000    0.18920000
opls_166-5    C    0.82149009    0.53504990    0.00000000    0.31150000
opls_145-6    C    0.76157995    0.56974990    0.00000000    -0.22190000
opls_716-7    C    0.70359997    0.53329003    0.00000000    -0.01500000
opls_543-8    C    0.63877980    0.55237013    0.00000000    0.33760000
opls_166-9    C    0.93902980    0.53481023    0.00000000    0.18920000
opls_166-10    C    0.67850991    0.96495010    0.50000000    0.31140000
opls_145-11    C    0.73842005    0.93025010    0.50000000    -0.22190000
opls_716-12    C    0.79640003    0.96670997    0.50000000    -0.01500000
opls_543-13    C    0.86122020    0.94762987    0.50000000    0.33750000
opls_166-14    C    0.56097020    0.96518977    0.50000000    0.18920000
opls_166-15    C    0.17850991    0.46495010    0.00000000    0.31150000
opls_145-16    C    0.23842005    0.43025010    0.00000000    -0.22190000
opls_716-17    C    0.29640003    0.46670997    0.00000000    -0.01500000
opls_543-18    C    0.36122020    0.44762987    0.00000000    0.33750000
opls_166-19    C    0.06097020    0.46518977    0.00000000    0.18920000
opls_166-20    C    0.96495010    0.32149009    0.50000000    0.31150000
opls_145-21    C    0.93025010    0.26157995    0.50000000    -0.22190000
opls_716-22    C    0.96670997    0.20359997    0.50000000    -0.01500000
opls_543-23    C    0.94762987    0.13877980    0.50000000    0.33760000
opls_166-24    C    0.96518977    0.43902980    0.50000000    0.18920000
opls_166-25    C    0.46495010    0.82149009    0.00000000    0.31150000
opls_145-26    C    0.43025010    0.76157995    0.00000000    -0.22190000
opls_716-27    C    0.46670997    0.70359997    0.00000000    -0.01500000
opls_543-28    C    0.44762987    0.63877980    0.00000000    0.33760000
opls_166-29    C    0.46518977    0.93902980    0.00000000    0.18920000
opls_166-30    C    0.03504990    0.67850991    0.50000000    0.31150000
opls_145-31    C    0.06974990    0.73842005    0.50000000    -0.22190000
opls_716-32    C    0.03329003    0.79640003    0.50000000    -0.01500000
opls_543-33    C    0.05237013    0.86122020    0.50000000    0.33760000
opls_166-34    C    0.03481023    0.56097020    0.50000000    0.18920000
opls_166-35    C    0.53504990    0.17850991    0.00000000    0.31150000
opls_145-36    C    0.56974990    0.23842005    0.00000000    -0.22190000
opls_716-37    C    0.53329003    0.29640003    0.00000000    -0.01500000
opls_543-38    C    0.55237013    0.36122020    0.00000000    0.33760000
opls_166-39    C    0.53481023    0.06097020    0.00000000    0.18920000
opls_166-40    C    0.67850991    0.03504990    0.50000000    0.31150000
opls_145-41    C    0.73842005    0.06974990    0.50000000    -0.22190000
opls_716-42    C    0.79640003    0.03329003    0.50000000    -0.01500000
opls_543-43    C    0.86122020    0.05237013    0.50000000    0.33760000
opls_166-44    C    0.56097020    0.03481023    0.50000000    0.18920000
opls_166-45    C    0.17850991    0.53504990    0.00000000    0.31150000
opls_145-46    C    0.23842005    0.56974990    0.00000000    -0.22190000
opls_716-47    C    0.29640003    0.53329003    0.00000000    -0.01500000
opls_543-48    C    0.36122020    0.55237013    0.00000000    0.33760000
opls_166-49    C    0.06097020    0.53481023    0.00000000    0.18920000
opls_166-50    C    0.32149009    0.96495010    0.50000000    0.31150000
opls_145-51    C    0.26157995    0.93025010    0.50000000    -0.22190000
opls_716-52    C    0.20359997    0.96670997    0.50000000    -0.01500000
opls_543-53    C    0.13877980    0.94762987    0.50000000    0.33760000
opls_166-54    C    0.43902980    0.96518977    0.50000000    0.18920000
opls_166-55    C    0.82149009    0.46495010    0.00000000    0.31150000
opls_145-56    C    0.76157995    0.43025010    0.00000000    -0.22190000
opls_716-57    C    0.70359997    0.46670997    0.00000000    -0.01500000
opls_543-58    C    0.63877980    0.44762987    0.00000000    0.33760000
opls_166-59    C    0.93902980    0.46518977    0.00000000    0.18920000
opls_166-60    C    0.03504990    0.32149009    0.50000000    0.31140000
opls_145-61    C    0.06974990    0.26157995    0.50000000    -0.22190000
opls_716-62    C    0.03329003    0.20359997    0.50000000    -0.01500000
opls_543-63    C    0.05237013    0.13877980    0.50000000    0.33760000
opls_166-64    C    0.03481023    0.43902980    0.50000000    0.18920000
opls_166-65    C    0.53504990    0.82149009    0.00000000    0.31150000
opls_145-66    C    0.56974990    0.76157995    0.00000000    -0.22200000
opls_716-67    C    0.53329003    0.70359997    0.00000000    -0.01500000
opls_543-68    C    0.55237013    0.63877980    0.00000000    0.33750000
opls_166-69    C    0.53481023    0.93902980    0.00000000    0.18920000
opls_166-70    C    0.96495010    0.67850991    0.50000000    0.31150000
opls_145-71    C    0.93025010    0.73842005    0.50000000    -0.22190000
opls_716-72    C    0.96670997    0.79640003    0.50000000    -0.01500000
opls_543-73    C    0.94762987    0.86122020    0.50000000    0.33750000
opls_166-74    C    0.96518977    0.56097020    0.50000000    0.18920000
opls_166-75    C    0.46495010    0.17850991    0.00000000    0.31150000
opls_145-76    C    0.43025010    0.23842005    0.00000000    -0.22190000
opls_716-77    C    0.46670997    0.29640003    0.00000000    -0.01500000
opls_543-78    C    0.44762987    0.36122020    0.00000000    0.33760000
opls_166-79    C    0.46518977    0.06097020    0.00000000    0.18920000
opls_700-80    C    0.50000000    0.06980994    0.50000000    -0.18410000
opls_700-81    C    0.00000000    0.56980994    0.00000000    -0.18410000
opls_700-82    C    0.50000000    0.93019006    0.50000000    -0.18410000
opls_700-83    C    0.00000000    0.43019006    0.00000000    -0.18420000
opls_700-84    C    0.93019006    0.50000000    0.50000000    -0.18410000
opls_700-85    C    0.43019006    0.00000000    0.00000000    -0.18410000
opls_700-86    C    0.06980994    0.50000000    0.50000000    -0.18420000
opls_700-87    C    0.56980994    0.00000000    0.00000000    -0.18420000
opls_261-88    C    0.14217996    0.50000000    0.50000000    0.24250000
opls_261-89    C    0.64217996    0.00000000    0.00000000    0.24250000
opls_261-90    C    0.85782004    0.50000000    0.50000000    0.24240000
opls_261-91    C    0.35782004    0.00000000    0.00000000    0.24250000
opls_261-92    C    0.50000000    0.14217996    0.50000000    0.24250000
opls_261-93    C    0.00000000    0.64217996    0.00000000    0.24250000
opls_261-94    C    0.50000000    0.85782004    0.50000000    0.24250000
opls_261-95    C    0.00000000    0.35782004    0.00000000    0.24240000
opls_180-96    O    0.38010984    0.07112985    0.50000000    -0.21400000
opls_180-97    O    0.88010984    0.57112985    0.00000000    -0.21400000
opls_180-98    O    0.61989016    0.92887015    0.50000000    -0.21400000
opls_180-99    O    0.11989016    0.42887015    0.00000000    -0.21400000
opls_180-100    O    0.92887015    0.38010984    0.50000000    -0.21410000
opls_180-101    O    0.42887015    0.88010984    0.00000000    -0.21410000
opls_180-102    O    0.07112985    0.61989016    0.50000000    -0.21400000
opls_180-103    O    0.57112985    0.11989016    0.00000000    -0.21400000
opls_180-104    O    0.61989016    0.07112985    0.50000000    -0.21400000
opls_180-105    O    0.11989016    0.57112985    0.00000000    -0.21400000
opls_180-106    O    0.38010984    0.92887015    0.50000000    -0.21400000
opls_180-107    O    0.88010984    0.42887015    0.00000000    -0.21400000
opls_180-108    O    0.07112985    0.38010984    0.50000000    -0.21400000
opls_180-109    O    0.57112985    0.88010984    0.00000000    -0.21400000
opls_180-110    O    0.92887015    0.61989016    0.50000000    -0.21400000
opls_180-111    O    0.42887015    0.11989016    0.00000000    -0.21400000
opls_146-112    H    0.26166017    0.12584992    0.50000000    0.04290000
opls_146-113    H    0.76166017    0.62584992    0.00000000    0.04290000
opls_146-114    H    0.73833983    0.87415008    0.50000000    0.04290000
opls_146-115    H    0.23833983    0.37415008    0.00000000    0.04280000
opls_146-116    H    0.87415008    0.26166017    0.50000000    0.04290000
opls_146-117    H    0.37415008    0.76166017    0.00000000    0.04290000
opls_146-118    H    0.12584992    0.73833983    0.50000000    0.04290000
opls_146-119    H    0.62584992    0.23833983    0.00000000    0.04290000
opls_146-120    H    0.73833983    0.12584992    0.50000000    0.04290000
opls_146-121    H    0.23833983    0.62584992    0.00000000    0.04290000
opls_146-122    H    0.26166017    0.87415008    0.50000000    0.04290000
opls_146-123    H    0.76166017    0.37415008    0.00000000    0.04290000
opls_146-124    H    0.12584992    0.26166017    0.50000000    0.04290000
opls_146-125    H    0.62584992    0.76166017    0.00000000    0.04290000
opls_146-126    H    0.87415008    0.73833983    0.50000000    0.04290000
opls_146-127    H    0.37415008    0.23833983    0.00000000    0.04290000
opls_542-128    N    0.09705998    0.00000000    0.50000000    -0.36560000
opls_542-129    N    0.59705998    0.50000000    0.00000000    -0.36560000
opls_542-130    N    0.90294002    0.00000000    0.50000000    -0.36560000
opls_542-131    N    0.40294002    0.50000000    0.00000000    -0.36560000
opls_542-132    N    0.00000000    0.09705998    0.50000000    -0.36580000
opls_542-133    N    0.50000000    0.59705998    0.00000000    -0.36570000
opls_542-134    N    0.00000000    0.90294002    0.50000000    -0.36570000
opls_542-135    N    0.50000000    0.40294002    0.00000000    -0.36560000
opls_750-136    N    0.11896002    0.88103998    0.50000000    -0.36540000
opls_750-137    N    0.61896002    0.38103998    0.00000000    -0.36550000
opls_750-138    N    0.88103998    0.11896002    0.50000000    -0.36540000
opls_750-139    N    0.38103998    0.61896002    0.00000000    -0.36540000
opls_750-140    N    0.11896002    0.11896002    0.50000000    -0.36550000
opls_750-141    N    0.61896002    0.61896002    0.00000000    -0.36540000
opls_750-142    N    0.88103998    0.88103998    0.50000000    -0.36550000
opls_750-143    N    0.38103998    0.38103998    0.00000000    -0.36540000
opls_262-144    N    0.19912990    0.50000000    0.50000000    -0.29760000
opls_262-145    N    0.69912990    0.00000000    0.00000000    -0.29760000
opls_262-146    N    0.80087010    0.50000000    0.50000000    -0.29770000
opls_262-147    N    0.30087010    0.00000000    0.00000000    -0.29760000
opls_262-148    N    0.50000000    0.19912990    0.50000000    -0.29760000
opls_262-149    N    0.00000000    0.69912990    0.00000000    -0.29760000
opls_262-150    N    0.50000000    0.80087010    0.50000000    -0.29770000
opls_262-151    N    0.00000000    0.30087010    0.00000000    -0.29760000
F2_Ni4+2-152    Ni    0.00000000    0.00000000    0.50000000    0.43960000
F2_Ni4+2-153    Ni    0.50000000    0.50000000    0.00000000    0.43970000
