#======================================================================
# Crystal Data Generated By AuToFF
#----------------------------------------------------------------------

data_AuToFF_phase_1

_cell_length_a                         32.9600
_cell_length_b                         32.9600
_cell_length_c                         3.6000
_cell_angle_alpha                      90.00
_cell_angle_beta                       90.00
_cell_angle_gamma                      120.00
_symmetry_space_group_name_H-M_alt     'P 1'
_symmetry_space_group_IT_number        1

loop_
_space_group_symop_operation_xyz
   'x, y, z'

loop_
   _atom_site_label
   _atom_site_type_symbol
   _atom_site_fract_x
   _atom_site_fract_y
   _atom_site_fract_z
   _atom_site_charge
opls_145-0    C    0.01298005    0.55183995    0.49923889    -0.19370000
opls_166-1    C    0.96114983    0.51297987    0.49873056    0.25990000
opls_700-2    C    0.94818001    0.46115008    0.50006111    -0.06960000
opls_235-3    C    0.10365992    0.57771001    0.50011944    0.35830000
opls_142-4    C    0.22951986    0.58919991    0.49988889    -0.01870000
opls_700-5    C    0.28143020    0.62787011    0.49975000    -0.06960000
opls_231-6    C    0.29475014    0.67982007    0.49988889    0.18890000
opls_182-7    C    0.05608002    0.42184997    0.49648056    0.03890000
opls_142-8    C    0.09606006    0.41045992    0.49610000    -0.04400000
opls_143-9    C    0.08476011    0.35913005    0.50363889    -0.34680000
opls_145-10    C    0.44816007    0.46113992    0.49923889    -0.19370000
opls_166-11    C    0.48702000    0.44816986    0.49873056    0.25990000
opls_700-12    C    0.53884992    0.48702994    0.50006111    -0.06960000
opls_235-13    C    0.42228989    0.52594993    0.50011944    0.35830000
opls_142-14    C    0.41079983    0.64031992    0.49988889    -0.01870000
opls_700-15    C    0.37213017    0.65356009    0.49975000    -0.06960000
opls_231-16    C    0.32018002    0.61492983    0.49988889    0.18890000
opls_182-17    C    0.57814993    0.63423007    0.49648056    0.03890000
opls_142-18    C    0.58953993    0.68559988    0.49610000    -0.04400000
opls_143-19    C    0.64086995    0.72563008    0.50363889    -0.34800000
opls_145-20    C    0.53886001    0.98701978    0.49923889    -0.19370000
opls_166-21    C    0.55183000    0.03884992    0.49873056    0.25990000
opls_700-22    C    0.51297007    0.05181998    0.50006111    -0.06960000
opls_235-23    C    0.47404989    0.89634006    0.50011944    0.35830000
opls_142-24    C    0.35967984    0.77047982    0.49988889    -0.01870000
opls_700-25    C    0.34643993    0.71856980    0.49975000    -0.06960000
opls_231-26    C    0.38507014    0.70525010    0.49988889    0.18890000
opls_182-27    C    0.36577005    0.94391996    0.49648056    0.03890000
opls_142-28    C    0.31439984    0.90393985    0.49610000    -0.04400000
opls_143-29    C    0.27436994    0.91523987    0.50363889    -0.34680000
opls_145-30    C    0.98701995    0.44816005    0.50076111    -0.19370000
opls_166-31    C    0.03885000    0.48701978    0.50126944    0.25990000
opls_700-32    C    0.05181999    0.53884992    0.49993889    -0.06960000
opls_235-33    C    0.89634008    0.42228999    0.49988056    0.35830000
opls_142-34    C    0.77048014    0.41080009    0.50011111    -0.01870000
opls_700-35    C    0.71856980    0.37212989    0.50025000    -0.06960000
opls_231-36    C    0.70524986    0.32017993    0.50011111    0.18890000
opls_182-37    C    0.94391998    0.57815003    0.50351944    0.03890000
opls_142-38    C    0.90393994    0.58954008    0.50390000    -0.04400000
opls_143-39    C    0.91523989    0.64086995    0.49636111    -0.34680000
opls_145-40    C    0.55183993    0.53886008    0.50076111    -0.19370000
opls_166-41    C    0.51297982    0.55182979    0.50126944    0.25990000
opls_700-42    C    0.46115008    0.51297006    0.49993889    -0.06960000
opls_235-43    C    0.57771011    0.47405007    0.49988056    0.35830000
opls_142-44    C    0.58920017    0.35968008    0.50011111    -0.01870000
opls_700-45    C    0.62786983    0.34643991    0.50025000    -0.06960000
opls_231-46    C    0.67981980    0.38506982    0.50011111    0.18890000
opls_182-47    C    0.42185007    0.36576993    0.50351944    0.03890000
opls_142-48    C    0.41046007    0.31440012    0.50390000    -0.04400000
opls_143-49    C    0.35913005    0.27436992    0.49636111    -0.34680000
opls_145-50    C    0.46113981    0.01297987    0.50076111    -0.19370000
opls_166-51    C    0.44817000    0.96115008    0.50126944    0.25990000
opls_700-52    C    0.48702993    0.94818002    0.49993889    -0.06960000
opls_235-53    C    0.52595011    0.10365994    0.49988056    0.35830000
opls_142-54    C    0.64031999    0.22951983    0.50011111    -0.01870000
opls_700-55    C    0.65355989    0.28142985    0.50025000    -0.06960000
opls_231-56    C    0.61492986    0.29474990    0.50011111    0.18890000
opls_182-57    C    0.63422995    0.05608004    0.50351944    0.03890000
opls_142-58    C    0.68560016    0.09606015    0.50390000    -0.04400000
opls_143-59    C    0.72563006    0.08476013    0.49636111    -0.34680000
opls_236-60    O    0.11644986    0.62855992    0.49928889    -0.33940000
opls_272-61    O    0.25697003    0.69298982    0.49988056    -0.27700000
opls_179-62    O    0.07700990    0.47436992    0.50210000    -0.15680000
opls_236-63    O    0.37144015    0.48789001    0.49928889    -0.33930000
opls_272-64    O    0.30701006    0.56398007    0.49988056    -0.27700000
opls_179-65    O    0.52563013    0.60264012    0.50210000    -0.15680000
opls_236-66    O    0.51210999    0.88355007    0.49928889    -0.33930000
opls_272-67    O    0.43601973    0.74302976    0.49988056    -0.27700000
opls_179-68    O    0.39735997    0.92298996    0.50210000    -0.15680000
opls_236-69    O    0.88355014    0.37144008    0.50071111    -0.33930000
opls_272-70    O    0.74302979    0.30700983    0.50011944    -0.27720000
opls_179-71    O    0.92299010    0.52563008    0.49790000    -0.15680000
opls_236-72    O    0.62855985    0.51210999    0.50071111    -0.33930000
opls_272-73    O    0.69298994    0.43601993    0.50011944    -0.27700000
opls_179-74    O    0.47436987    0.39735988    0.49790000    -0.15680000
opls_236-75    O    0.48789001    0.11644993    0.50071111    -0.33940000
opls_272-76    O    0.56398009    0.25696989    0.50011944    -0.27700000
opls_179-77    O    0.60264003    0.07701004    0.49790000    -0.15680000
opls_238-78    N    0.85829978    0.43506982    0.49946944    -0.22810000
opls_238-79    N    0.19155994    0.60211987    0.50011111    -0.13610000
opls_238-80    N    0.56492990    0.42322994    0.49946944    -0.22820000
opls_238-81    N    0.39787983    0.58943989    0.50011111    -0.13610000
opls_238-82    N    0.57676985    0.14169989    0.49946944    -0.22810000
opls_238-83    N    0.41056006    0.80843989    0.50011111    -0.13610000
opls_238-84    N    0.14170005    0.56492983    0.50053056    -0.22810000
opls_238-85    N    0.80844006    0.39788013    0.49988889    -0.13610000
opls_238-86    N    0.43507010    0.57677006    0.50053056    -0.22810000
opls_238-87    N    0.60212017    0.41056011    0.49988889    -0.13610000
opls_238-88    N    0.42322998    0.85829976    0.50053056    -0.22820000
opls_238-89    N    0.58943994    0.19156011    0.49988889    -0.13610000
opls_146-90    H    0.02259009    0.59020992    0.50000000    0.04230000
opls_910-91    H    0.86770017    0.47245009    0.50000000    0.20620000
opls_910-92    H    0.20105986    0.63952992    0.50000000    0.20620000
opls_144-93    H    0.21977000    0.55079000    0.50000000    0.02500000
opls_185-94    H    0.03383983    0.40685989    0.73583889    0.08950000
opls_185-95    H    0.03327992    0.40597004    0.25321111    0.07630000
opls_144-96    H    0.13406981    0.44004982    0.50000000    0.04230000
opls_144-97    H    0.05071006    0.33048991    0.50000000    0.17310000
opls_144-98    H    0.11043004    0.34977999    0.50000000    0.17310000
opls_146-99    H    0.40979010    0.43237996    0.50000000    0.04230000
opls_910-100    H    0.52754997    0.39524982    0.50000000    0.20620000
opls_910-101    H    0.36047002    0.56152984    0.50000000    0.20620000
opls_144-102    H    0.44920998    0.66898004    0.50000000    0.02500000
opls_185-103    H    0.59313983    0.62697991    0.73583889    0.08950000
opls_185-104    H    0.59402996    0.62730993    0.25321111    0.07630000
opls_144-105    H    0.55994983    0.69401980    0.50000000    0.04230000
opls_144-106    H    0.66950981    0.72021987    0.50000000    0.17310000
opls_144-107    H    0.65021992    0.76064980    0.50000000    0.17310000
opls_146-108    H    0.56761993    0.97740977    0.50000000    0.04230000
opls_910-109    H    0.60475016    0.13230008    0.50000000    0.20620000
opls_910-110    H    0.43846994    0.79893989    0.50000000    0.20620000
opls_144-111    H    0.33102002    0.78022996    0.50000000    0.02500000
opls_185-112    H    0.37301985    0.96615985    0.73583889    0.08950000
opls_185-113    H    0.37269011    0.96672003    0.25321111    0.07630000
opls_144-114    H    0.30597988    0.86593003    0.50000000    0.04230000
opls_144-115    H    0.27977995    0.94928987    0.50000000    0.17310000
opls_144-116    H    0.23934986    0.88956986    0.50000000    0.17310000
opls_146-117    H    0.97740991    0.40979008    0.50000000    0.04230000
opls_910-118    H    0.13229983    0.52754991    0.50000000    0.20620000
opls_910-119    H    0.79894014    0.36047008    0.50000000    0.20620000
opls_144-120    H    0.78023000    0.44921000    0.50000000    0.02500000
opls_185-121    H    0.96616017    0.59314011    0.26416111    0.08950000
opls_185-122    H    0.96672008    0.59402996    0.74678889    0.07630000
opls_144-123    H    0.86593001    0.55994983    0.50000000    0.04230000
opls_144-124    H    0.94928994    0.66951009    0.50000000    0.17310000
opls_144-125    H    0.88956996    0.65022001    0.50000000    0.17310000
opls_146-126    H    0.59020990    0.56762004    0.50000000    0.04230000
opls_910-127    H    0.47244985    0.60474983    0.50000000    0.20620000
opls_910-128    H    0.63952981    0.43846981    0.50000000    0.20620000
opls_144-129    H    0.55079002    0.33101996    0.50000000    0.02500000
opls_185-130    H    0.40686017    0.37302009    0.26416111    0.08950000
opls_185-131    H    0.40597004    0.37269007    0.74678889    0.07630000
opls_144-132    H    0.44005000    0.30597985    0.50000000    0.04230000
opls_144-133    H    0.33049019    0.27978013    0.50000000    0.17310000
opls_144-134    H    0.34977990    0.23934985    0.50000000    0.17310000
opls_146-135    H    0.43237989    0.02258988    0.50000000    0.04230000
opls_910-136    H    0.39524984    0.86769992    0.50000000    0.20620000
opls_910-137    H    0.56153006    0.20106011    0.50000000    0.20620000
opls_144-138    H    0.66897998    0.21977004    0.50000000    0.02500000
opls_185-139    H    0.62698015    0.03384015    0.26416111    0.08950000
opls_185-140    H    0.62730989    0.03327997    0.74678889    0.07630000
opls_144-141    H    0.69402012    0.13406997    0.50000000    0.04230000
opls_144-142    H    0.72022005    0.05071013    0.50000000    0.17310000
opls_144-143    H    0.76065014    0.11043014    0.50000000    0.17310000
