#======================================================================
# Crystal Data Generated By AuToFF
#----------------------------------------------------------------------

data_AuToFF_phase_1

_cell_length_a                         44.8600
_cell_length_b                         44.8600
_cell_length_c                         3.5900
_cell_angle_alpha                      90.00
_cell_angle_beta                       90.00
_cell_angle_gamma                      120.00
_symmetry_space_group_name_H-M_alt     'P 1'
_symmetry_space_group_IT_number        1

loop_
_space_group_symop_operation_xyz
   'x, y, z'

loop_
   _atom_site_label
   _atom_site_type_symbol
   _atom_site_fract_x
   _atom_site_fract_y
   _atom_site_fract_z
   _atom_site_charge
opls_145-0    C    0.29799999    0.65341996    0.02649861    -0.19340000
opls_700-1    C    0.31079993    0.63068991    0.03300000    0.06570000
opls_700-2    C    0.28725006    0.59257012    0.04400000    0.01140000
opls_716-3    C    0.25325987    0.57685991    0.18635933    0.10370000
opls_716-4    C    0.23233998    0.54191002    0.18847911    0.10610000
opls_700-5    C    0.24368983    0.52001987    0.05742897    0.01180000
opls_145-6    C    0.27723006    0.53467010    0.91596100    -0.11930000
opls_145-7    C    0.29856008    0.57031009    0.90655989    -0.13040000
opls_142-8    C    0.22091991    0.48264989    0.06232869    0.05710000
opls_145-9    C    0.21161997    0.42607008    0.89577994    0.19780000
opls_145-10    C    0.17677008    0.40701006    0.00325905    -0.16090000
opls_145-11    C    0.15948016    0.37125012    0.98581894    -0.11960000
opls_700-12    C    0.17645000    0.35383000    0.86589136    0.06440000
opls_145-13    C    0.21105003    0.37305012    0.75350975    -0.11770000
opls_145-14    C    0.22840003    0.40889011    0.76820056    -0.16130000
opls_700-15    C    0.15833002    0.31580004    0.86788022    0.07230000
opls_145-16    C    0.12353995    0.29651994    0.76369916    -0.11980000
opls_145-17    C    0.10622005    0.26065009    0.78023955    -0.17070000
opls_145-18    C    0.12310998    0.24326009    0.90074095    0.19330000
opls_145-19    C    0.15821013    0.26259012    0.99823120    -0.16830000
opls_145-20    C    0.17548010    0.29843011    0.98301950    -0.11670000
opls_142-21    C    0.11394003    0.18604012    0.05430084    0.07010000
opls_700-22    C    0.09117005    0.14827992    0.04481894    -0.00220000
opls_145-23    C    0.05732998    0.13321012    0.90901950    -0.13100000
opls_145-24    C    0.03602010    0.09730012    0.89603064    -0.12830000
opls_700-25    C    0.04695995    0.07489003    0.04101114    0.00250000
opls_716-26    C    0.08110009    0.09109007    0.18267967    0.09860000
opls_716-27    C    0.10275997    0.12623996    0.17103064    0.10690000
opls_700-28    C    0.02288004    0.03627011    0.03649025    0.06320000
opls_145-29    C    0.03547004    0.01310994    0.03211978    -0.17210000
opls_145-30    C    0.34658003    0.64458004    0.02649861    -0.19340000
opls_700-31    C    0.36931007    0.68011012    0.03300000    0.06570000
opls_700-32    C    0.40743008    0.69468004    0.04400000    0.01140000
opls_716-33    C    0.42314001    0.67639994    0.18635933    0.10370000
opls_716-34    C    0.45808999    0.69043009    0.18847911    0.10610000
opls_700-35    C    0.47997993    0.72367007    0.05742897    0.01180000
opls_145-36    C    0.46532991    0.74255996    0.91596100    -0.11930000
opls_145-37    C    0.42969010    0.72825001    0.90655989    -0.13040000
opls_142-38    C    0.51734995    0.73827011    0.06232869    0.05710000
opls_145-39    C    0.57392994    0.78555003    0.89577994    0.19780000
opls_145-40    C    0.59298991    0.76976003    0.00325905    -0.16090000
opls_145-41    C    0.62875013    0.78823009    0.98581894    -0.11960000
opls_700-42    C    0.64616995    0.82261988    0.86589136    0.06440000
opls_145-43    C    0.62695012    0.83800010    0.75350975    -0.11770000
opls_145-44    C    0.59111008    0.81950996    0.76820056    -0.16130000
opls_700-45    C    0.68419996    0.84253010    0.86788022    0.07230000
opls_145-46    C    0.70347985    0.82701989    0.76369916    -0.11980000
opls_145-47    C    0.73935009    0.84557000    0.78023955    -0.17070000
opls_145-48    C    0.75673992    0.87984988    0.90074095    0.19330000
opls_145-49    C    0.73741012    0.89562007    0.99823120    -0.16830000
opls_145-50    C    0.70156997    0.87704988    0.98301950    -0.11670000
opls_142-51    C    0.81396000    0.92789994    0.05430084    0.07010000
opls_700-52    C    0.85172005    0.94288994    0.04481894    -0.00220000
opls_145-53    C    0.86679005    0.92412001    0.90901950    -0.13100000
opls_145-54    C    0.90269997    0.93872005    0.89603064    -0.12830000
opls_700-55    C    0.92510987    0.97206994    0.04101114    0.00250000
opls_716-56    C    0.90891004    0.99001001    0.18267967    0.09860000
opls_716-57    C    0.87375994    0.97651989    0.17103064    0.10690000
opls_700-58    C    0.96373010    0.98661000    0.03649025    0.06320000
opls_145-59    C    0.98688994    0.02235990    0.03211978    -0.17210000
opls_145-60    C    0.35541998    0.70200001    0.02649861    -0.19340000
opls_700-61    C    0.31989000    0.68919997    0.03300000    0.06570000
opls_700-62    C    0.30531999    0.71275010    0.04400000    0.01140000
opls_716-63    C    0.32359999    0.74673989    0.18635933    0.10370000
opls_716-64    C    0.30957003    0.76765989    0.18847911    0.10610000
opls_700-65    C    0.27633002    0.75631005    0.05742897    0.01180000
opls_145-66    C    0.25744003    0.72276994    0.91596100    -0.11930000
opls_145-67    C    0.27175004    0.70143990    0.90655989    -0.13040000
opls_142-68    C    0.26172992    0.77908000    0.06232869    0.05710000
opls_145-69    C    0.21444987    0.78837989    0.89577994    0.19780000
opls_145-70    C    0.23024001    0.82322992    0.00325905    -0.16090000
opls_145-71    C    0.21177006    0.84052005    0.98581894    -0.11960000
opls_700-72    C    0.17737993    0.82354987    0.86589136    0.06440000
opls_145-73    C    0.16199998    0.78895004    0.75350975    -0.11770000
opls_145-74    C    0.18048989    0.77159993    0.76820056    -0.16130000
opls_700-75    C    0.15747015    0.84167012    0.86788022    0.07230000
opls_145-76    C    0.17297985    0.87645991    0.76369916    -0.11980000
opls_145-77    C    0.15442986    0.89377991    0.78023955    -0.16290000
opls_145-78    C    0.12015010    0.87689003    0.90074095    0.19330000
opls_145-79    C    0.10438010    0.84179007    0.99823120    -0.16830000
opls_145-80    C    0.12294993    0.82452001    0.98301950    -0.11670000
opls_142-81    C    0.07209996    0.88605994    0.05430084    0.07010000
opls_700-82    C    0.05710999    0.90882988    0.04481894    -0.00220000
opls_145-83    C    0.07587996    0.94266987    0.90901950    -0.13100000
opls_145-84    C    0.06128006    0.96398009    0.89603064    -0.12830000
opls_700-85    C    0.02792996    0.95304003    0.04101114    0.00250000
opls_716-86    C    0.00998986    0.91889992    0.18267967    0.09860000
opls_716-87    C    0.02347995    0.89723989    0.17103064    0.10700000
opls_700-88    C    0.01338986    0.97711989    0.03649025    0.06320000
opls_145-89    C    0.97763989    0.96452990    0.03211978    -0.17210000
opls_750-90    N    0.23096004    0.46283002    0.91450975    -0.29810000
opls_750-91    N    0.10382003    0.20629989    0.91505014    -0.33830000
opls_750-92    N    0.23757010    0.59301002    0.33166017    -0.35660000
opls_750-93    N    0.20061001    0.53166006    0.31798050    -0.35680000
opls_750-94    N    0.09627995    0.07504987    0.34584123    -0.35680000
opls_750-95    N    0.13381009    0.13667011    0.32252925    -0.35680000
opls_750-96    N    0.53716995    0.76812991    0.91450975    -0.29810000
opls_750-97    N    0.79370001    0.89751994    0.91505014    -0.33830000
opls_750-98    N    0.40698997    0.64455996    0.33166017    -0.35680000
opls_750-99    N    0.46833991    0.66894998    0.31798050    -0.35670000
opls_750-100    N    0.92495000    0.02122991    0.34584123    -0.35660000
opls_750-101    N    0.86332993    0.99714002    0.32252925    -0.35680000
opls_750-102    N    0.23187002    0.76904007    0.91450975    -0.29810000
opls_750-103    N    0.10248006    0.89617991    0.91505014    -0.33830000
opls_750-104    N    0.35543993    0.76243002    0.33166017    -0.35670000
opls_750-105    N    0.33105008    0.79938996    0.31798050    -0.35680000
opls_750-106    N    0.97876992    0.90371996    0.34584123    -0.35680000
opls_750-107    N    0.00285998    0.86618987    0.32252925    -0.35670000
opls_202-108    S    0.19616998    0.56540995    0.44928134    0.44070000
opls_202-109    S    0.13758992    0.10277993    0.46820056    0.44070000
opls_202-110    S    0.43458995    0.63075992    0.44928134    0.44070000
opls_202-111    S    0.89722004    0.03481013    0.46820056    0.44080000
opls_202-112    S    0.36923995    0.80382987    0.44928134    0.44070000
opls_202-113    S    0.96519004    0.86240994    0.46820056    0.44070000
opls_146-114    H    0.27085986    0.64326987    0.00935933    0.11030000
opls_146-115    H    0.28691997    0.51874007    0.80347075    0.11600000
opls_146-116    H    0.32332997    0.57968000    0.77591086    0.12410000
opls_144-117    H    0.19616999    0.47243004    0.19581894    0.10010000
opls_146-118    H    0.16259990    0.41916993    0.09362953    0.09720000
opls_146-119    H    0.13301012    0.35724004    0.07916992    0.11780000
opls_146-120    H    0.22460989    0.36039990    0.65145961    0.11800000
opls_146-121    H    0.25506003    0.42337998    0.68081894    0.11550000
opls_146-122    H    0.10987008    0.30921006    0.66579109    0.11670000
opls_146-123    H    0.07942998    0.24625005    0.69762953    0.11600000
opls_146-124    H    0.17261001    0.25050000    0.08694986    0.11510000
opls_146-125    H    0.20217006    0.31264997    0.06977994    0.11460000
opls_144-126    H    0.13895991    0.19637991    0.18208078    0.12180000
opls_146-127    H    0.04731004    0.14918005    0.80637047    0.11350000
opls_146-128    H    0.01121996    0.08759997    0.76469916    0.12340000
opls_146-129    H    0.06269999    0.02309993    0.02154039    0.24570000
opls_146-130    H    0.35672992    0.62759003    0.00935933    0.11030000
opls_146-131    H    0.48126013    0.76818010    0.80347075    0.11600000
opls_146-132    H    0.42032012    0.74365005    0.77591086    0.12410000
opls_144-133    H    0.52757000    0.72374009    0.19581894    0.10010000
opls_146-134    H    0.58083001    0.74342997    0.09362953    0.09720000
opls_146-135    H    0.64275998    0.77577008    0.07916992    0.11780000
opls_146-136    H    0.63960007    0.86420995    0.65145961    0.11770000
opls_146-137    H    0.57661992    0.83167988    0.68081894    0.11540000
opls_146-138    H    0.69079009    0.80065998    0.66579109    0.11670000
opls_146-139    H    0.75375006    0.83318001    0.69762953    0.11600000
opls_146-140    H    0.74949992    0.92210997    0.08694986    0.11510000
opls_146-141    H    0.68735002    0.88951992    0.06977994    0.11470000
opls_144-142    H    0.80361993    0.94258003    0.18208078    0.12180000
opls_146-143    H    0.85082001    0.89812998    0.80637047    0.11350000
opls_146-144    H    0.91240000    0.92361988    0.76469916    0.12340000
opls_146-145    H    0.97690014    0.03960010    0.02154039    0.24570000
opls_146-146    H    0.37241000    0.72914010    0.00935933    0.11030000
opls_146-147    H    0.23182002    0.71308009    0.80347075    0.11600000
opls_146-148    H    0.25634991    0.67666995    0.77591086    0.12410000
opls_144-149    H    0.27626001    0.80382987    0.19581894    0.10010000
opls_146-150    H    0.25657009    0.83740010    0.09362953    0.09720000
opls_146-151    H    0.22422989    0.86698988    0.07916992    0.11780000
opls_146-152    H    0.13578991    0.77538990    0.65145961    0.11800000
opls_146-153    H    0.16831992    0.74493988    0.68081894    0.11540000
opls_146-154    H    0.19934006    0.89012996    0.66579109    0.11790000
opls_146-155    H    0.16681997    0.92056994    0.69762953    0.11610000
opls_146-156    H    0.07789007    0.82739003    0.08694986    0.11510000
opls_146-157    H    0.11048015    0.79783011    0.06977994    0.11460000
opls_144-158    H    0.05741994    0.86104005    0.18208078    0.12180000
opls_146-159    H    0.10186995    0.95268997    0.80637047    0.11350000
opls_146-160    H    0.07637992    0.98877989    0.76469916    0.12340000
opls_146-161    H    0.96040010    0.93729997    0.02154039    0.24570000
