#======================================================================
# Crystal Data Generated By AuToFF
#----------------------------------------------------------------------

data_AuToFF_phase_1

_cell_length_a                         15.9398
_cell_length_b                         15.9398
_cell_length_c                         14.6157
_cell_angle_alpha                      90.00
_cell_angle_beta                       90.00
_cell_angle_gamma                      120.00
_symmetry_space_group_name_H-M_alt     'P 1'
_symmetry_space_group_IT_number        1

loop_
_space_group_symop_operation_xyz
   'x, y, z'

loop_
   _atom_site_label
   _atom_site_type_symbol
   _atom_site_fract_x
   _atom_site_fract_y
   _atom_site_fract_z
   _atom_site_charge
opls_750-0    N    0.10558964    0.09005981    0.11926011    -0.87790000
opls_238-1    N    0.78039031    0.81318027    0.10604966    -0.56580000
opls_238-2    N    0.88443017    0.90245047    0.27961986    -0.56630000
opls_750-3    N    0.75673022    0.43891999    0.38073989    -0.87790000
opls_238-4    N    0.47985019    0.11371989    0.39395034    -0.56600000
opls_238-5    N    0.56910982    0.21776016    0.22038014    -0.56630000
opls_750-6    N    0.90994005    0.01552998    0.11926011    -0.87790000
opls_238-7    N    0.18682030    0.96721015    0.10604966    -0.56580000
opls_238-8    N    0.09755041    0.98198021    0.27961986    -0.56630000
opls_750-9    N    0.56108024    0.31781036    0.38073989    -0.87790000
opls_238-10    N    0.88628032    0.36613019    0.39395034    -0.56600000
opls_238-11    N    0.78223969    0.35134998    0.22038014    -0.56630000
opls_750-12    N    0.98447031    0.89441021    0.11926011    -0.87790000
opls_238-13    N    0.03279039    0.21961031    0.10604966    -0.56580000
opls_238-14    N    0.01801978    0.11557004    0.27961986    -0.56630000
opls_750-15    N    0.68218990    0.24327038    0.38073989    -0.87790000
opls_238-16    N    0.63387012    0.52014992    0.39395034    -0.56600000
opls_238-17    N    0.64864986    0.43088986    0.22038014    -0.56630000
opls_750-18    N    0.09006011    0.10558979    0.88073989    -0.87790000
opls_238-19    N    0.81318044    0.78039042    0.89395034    -0.56580000
opls_238-20    N    0.90244974    0.88442996    0.72038014    -0.56630000
opls_750-21    N    0.43891988    0.75673035    0.61926011    -0.87790000
opls_238-22    N    0.11372019    0.47985008    0.60604966    -0.56600000
opls_238-23    N    0.21776000    0.56911014    0.77961986    -0.56630000
opls_750-24    N    0.01552982    0.90994019    0.88073989    -0.87790000
opls_238-25    N    0.96721004    0.18681973    0.89395034    -0.56580000
opls_238-26    N    0.98198006    0.09755025    0.72038014    -0.56630000
opls_750-27    N    0.31781024    0.56108001    0.61926011    -0.87790000
opls_238-28    N    0.36613031    0.88628011    0.60604966    -0.56600000
opls_238-29    N    0.35134966    0.78223984    0.77961986    -0.56630000
opls_750-30    N    0.89441007    0.98447002    0.88073989    -0.87790000
opls_238-31    N    0.21961015    0.03278985    0.89395034    -0.56580000
opls_238-32    N    0.11557020    0.01801979    0.72038014    -0.56630000
opls_750-33    N    0.24327024    0.68219037    0.61926011    -0.87790000
opls_238-34    N    0.52015013    0.63386981    0.60604966    -0.56600000
opls_238-35    N    0.43088971    0.64865002    0.77961986    -0.56630000
opls_781-36    P    0.01612003    0.10898005    0.15627989    1.15580000
opls_781-37    P    0.77564965    0.34944984    0.34372011    1.15580000
opls_781-38    P    0.89102045    0.90714033    0.15627989    1.15590000
opls_781-39    P    0.65055029    0.42620001    0.34372011    1.15590000
opls_781-40    P    0.09285989    0.98388035    0.15627989    1.15580000
opls_781-41    P    0.57380006    0.22435015    0.34372011    1.15580000
opls_781-42    P    0.10897954    0.01611965    0.84372011    1.15580000
opls_781-43    P    0.34944992    0.77564985    0.65627989    1.15580000
opls_781-44    P    0.90713998    0.89101995    0.84372011    1.15580000
opls_781-45    P    0.42619981    0.65055016    0.65627989    1.15600000
opls_781-46    P    0.98388012    0.09285967    0.84372011    1.15580000
opls_781-47    P    0.22435028    0.57379999    0.65627989    1.15580000
opls_916-48    C    0.28718968    0.03395978    0.12158980    0.24560000
opls_916-49    C    0.18787040    0.01345019    0.32407001    0.26210000
opls_145-50    C    0.32096987    0.13311026    0.13319992    -0.17600000
opls_145-51    C    0.35121022    0.99868012    0.13238025    -0.17140000
opls_145-52    C    0.25012986    0.11222977    0.33972988    -0.16160000
opls_145-53    C    0.21997010    0.94753000    0.33993993    -0.16890000
opls_916-54    C    0.70062987    0.62052973    0.37841020    0.24560000
opls_916-55    C    0.68011013    0.52120974    0.17592999    0.26210000
opls_145-56    C    0.79978001    0.65429972    0.36680008    -0.17470000
opls_145-57    C    0.66535014    0.68454036    0.36761975    -0.17140000
opls_145-58    C    0.77889987    0.58346005    0.16027012    -0.16170000
opls_145-59    C    0.61419994    0.55329981    0.16006007    -0.17140000
opls_916-60    C    0.96604038    0.25323034    0.12158980    0.24560000
opls_916-61    C    0.98654999    0.17441994    0.32407001    0.26210000
opls_145-62    C    0.86689013    0.18785999    0.13319992    -0.17600000
opls_145-63    C    0.00131992    0.35253005    0.13238025    -0.17140000
opls_145-64    C    0.88777023    0.13790008    0.33972988    -0.16170000
opls_145-65    C    0.05247006    0.27244034    0.33993993    -0.16890000
opls_916-66    C    0.37947012    0.08009985    0.37841020    0.24570000
opls_916-67    C    0.47879007    0.15890011    0.17592999    0.26210000
opls_145-68    C    0.34570031    0.14548035    0.36680008    -0.17470000
opls_145-69    C    0.31546004    0.98081029    0.36761975    -0.17140000
opls_145-70    C    0.41654031    0.19544025    0.16027012    -0.16190000
opls_145-71    C    0.44669989    0.06090000    0.16006007    -0.17140000
opls_916-72    C    0.74676994    0.71280988    0.12158980    0.24560000
opls_916-73    C    0.82558024    0.81212987    0.32407001    0.26210000
opls_145-74    C    0.81214000    0.67902975    0.13319992    -0.17600000
opls_145-75    C    0.64746986    0.64878983    0.13238025    -0.17140000
opls_145-76    C    0.86209991    0.74987015    0.33972988    -0.16170000
opls_145-77    C    0.72756020    0.78003038    0.33993993    -0.16890000
opls_916-78    C    0.91989965    0.29936969    0.37841020    0.24560000
opls_916-79    C    0.84109979    0.31989015    0.17592999    0.26210000
opls_145-80    C    0.85451968    0.20021993    0.36680008    -0.17470000
opls_145-81    C    0.01919018    0.33465008    0.36761975    -0.17140000
opls_145-82    C    0.80455981    0.22109970    0.16027012    -0.16190000
opls_145-83    C    0.93910017    0.38580019    0.16006007    -0.17140000
opls_916-84    C    0.03396006    0.28719012    0.87841020    0.24560000
opls_916-85    C    0.01345037    0.18787013    0.67592999    0.26210000
opls_145-86    C    0.13311025    0.32097025    0.86680008    -0.17600000
opls_145-87    C    0.99868003    0.35121017    0.86761975    -0.16360000
opls_145-88    C    0.11222976    0.25012985    0.66027012    -0.16170000
opls_145-89    C    0.94753018    0.21997034    0.66006007    -0.16880000
opls_916-90    C    0.62052996    0.70063031    0.62158980    0.24560000
opls_916-91    C    0.52120964    0.68010985    0.82407001    0.26210000
opls_145-92    C    0.65429975    0.79978007    0.63319992    -0.17470000
opls_145-93    C    0.68454010    0.66534992    0.63238025    -0.17140000
opls_145-94    C    0.58346011    0.77890030    0.83972988    -0.16190000
opls_145-95    C    0.55329998    0.61419981    0.83993993    -0.17140000
opls_916-96    C    0.25322990    0.96604022    0.87841020    0.24560000
opls_916-97    C    0.17442022    0.98654981    0.67592999    0.26210000
opls_145-98    C    0.18785997    0.86689046    0.86680008    -0.17600000
opls_145-99    C    0.35253010    0.00131988    0.86761975    -0.17140000
opls_145-100    C    0.13790010    0.88777023    0.66027012    -0.16170000
opls_145-101    C    0.27244009    0.05247000    0.66006007    -0.16890000
opls_916-102    C    0.08010013    0.37947027    0.62158980    0.24560000
opls_916-103    C    0.15890039    0.47879026    0.82407001    0.26210000
opls_145-104    C    0.14548029    0.34570028    0.63319992    -0.17470000
opls_145-105    C    0.98081014    0.31546036    0.63238025    -0.17140000
opls_145-106    C    0.19543983    0.41653995    0.83972988    -0.16170000
opls_145-107    C    0.06090013    0.44670019    0.83993993    -0.17140000
opls_916-108    C    0.71281040    0.74677038    0.87841020    0.24560000
opls_916-109    C    0.81213004    0.82558006    0.67592999    0.26210000
opls_145-110    C    0.67903014    0.81214001    0.86680008    -0.17600000
opls_145-111    C    0.64878987    0.64746995    0.86761975    -0.17140000
opls_145-112    C    0.74987014    0.86209992    0.66027012    -0.16170000
opls_145-113    C    0.78003008    0.72756039    0.66006007    -0.16890000
opls_916-114    C    0.29937027    0.91990015    0.62158980    0.24560000
opls_916-115    C    0.31988996    0.84109989    0.82407001    0.26210000
opls_145-116    C    0.20022033    0.85452038    0.63319992    -0.17470000
opls_145-117    C    0.33464975    0.01918971    0.63238025    -0.17140000
opls_145-118    C    0.22110006    0.80455975    0.83972988    -0.16190000
opls_145-119    C    0.38579989    0.93910000    0.83993993    -0.17140000
opls_146-120    H    0.27508991    0.16355012    0.12272967    0.09540000
opls_146-121    H    0.22750988    0.16434987    0.32545003    0.12450000
opls_146-122    H    0.83022968    0.60842986    0.37716976    0.09540000
opls_146-123    H    0.83104963    0.56090978    0.17466970    0.12450000
opls_146-124    H    0.53800971    0.50567976    0.17394993    0.11980000
opls_146-125    H    0.17226023    0.87129997    0.32632033    0.11710000
opls_146-126    H    0.32569008    0.92222044    0.12390991    0.11710000
opls_146-127    H    0.58894012    0.65915981    0.37640004    0.12030000
opls_910-128    H    0.06461991    0.50082040    0.58434971    0.28400000
opls_910-129    H    0.37197018    0.59411037    0.81330966    0.28430000
opls_910-130    H    0.26749984    0.10180980    0.91882017    0.28530000
opls_910-131    H    0.96142027    0.88912996    0.68648029    0.28740000
opls_146-132    H    0.83644987    0.11154012    0.12272967    0.09540000
opls_146-133    H    0.83564977    0.06316017    0.32545003    0.12450000
opls_146-134    H    0.39156988    0.22180021    0.37716976    0.09540000
opls_146-135    H    0.43909029    0.27014033    0.17466970    0.12450000
opls_146-136    H    0.49432024    0.03232985    0.17394993    0.11980000
opls_146-137    H    0.12869982    0.30095978    0.32632033    0.11710000
opls_146-138    H    0.07777991    0.40347009    0.12390991    0.11710000
opls_146-139    H    0.34084030    0.92977028    0.37640004    0.12010000
opls_910-140    H    0.49918006    0.56379004    0.58434971    0.28400000
opls_910-141    H    0.40589008    0.77786004    0.81330966    0.28430000
opls_910-142    H    0.89819020    0.16567989    0.91882017    0.28530000
opls_910-143    H    0.11086988    0.07228995    0.68648029    0.28740000
opls_146-144    H    0.88845960    0.72490976    0.12272967    0.09540000
opls_146-145    H    0.93683972    0.77248996    0.32545003    0.12450000
opls_146-146    H    0.77819981    0.16976993    0.37716976    0.09540000
opls_146-147    H    0.72986009    0.16894990    0.17466970    0.11460000
opls_146-148    H    0.96767006    0.46199038    0.17394993    0.11980000
opls_146-149    H    0.69903996    0.82774026    0.32632033    0.11710000
opls_146-150    H    0.59653037    0.67431020    0.12390991    0.11710000
opls_146-151    H    0.07023019    0.41105977    0.37640004    0.11720000
opls_910-152    H    0.43621038    0.93538014    0.58434971    0.28400000
opls_910-153    H    0.22214010    0.62803031    0.81330966    0.28440000
opls_910-154    H    0.83431994    0.73250016    0.91882017    0.28530000
opls_910-155    H    0.92770985    0.03858009    0.68648029    0.28740000
opls_146-156    H    0.16354984    0.27509024    0.87727033    0.09540000
opls_146-157    H    0.16434976    0.22751004    0.67454997    0.12450000
opls_146-158    H    0.60842988    0.83023007    0.62283024    0.09540000
opls_146-159    H    0.56091019    0.83105010    0.82533030    0.11460000
opls_146-160    H    0.50568003    0.53801034    0.82605007    0.11980000
opls_146-161    H    0.87129970    0.17225974    0.67367967    0.11710000
opls_146-162    H    0.92222018    0.32568980    0.87607983    0.11710000
opls_146-163    H    0.65916039    0.58894023    0.62359996    0.12030000
opls_910-164    H    0.50082020    0.06461986    0.41565029    0.28400000
opls_910-165    H    0.59410979    0.37196969    0.18669034    0.28430000
opls_910-166    H    0.10180974    0.26749984    0.08117983    0.28530000
opls_910-167    H    0.88912976    0.96141991    0.31351971    0.28740000
opls_146-168    H    0.11153979    0.83644988    0.87727033    0.09540000
opls_146-169    H    0.06316001    0.83565013    0.67454997    0.12450000
opls_146-170    H    0.22179983    0.39157014    0.62283024    0.09540000
opls_146-171    H    0.27013985    0.43909022    0.82533030    0.12450000
opls_146-172    H    0.03232994    0.49432024    0.82605007    0.11980000
opls_146-173    H    0.30096026    0.12870003    0.67367967    0.11710000
opls_146-174    H    0.40347000    0.07778028    0.87607983    0.11710000
opls_146-175    H    0.92978031    0.34084019    0.62359996    0.12030000
opls_910-176    H    0.56379047    0.49918033    0.41565029    0.28400000
opls_910-177    H    0.77786017    0.40589035    0.18669034    0.28430000
opls_910-178    H    0.16568000    0.89819020    0.08117983    0.28540000
opls_910-179    H    0.07229031    0.11087004    0.31351971    0.28740000
opls_146-180    H    0.72490975    0.88845988    0.87727033    0.09540000
opls_146-181    H    0.77248960    0.93683983    0.67454997    0.12450000
opls_146-182    H    0.16976966    0.77819979    0.62283024    0.09540000
opls_146-183    H    0.16895032    0.72986040    0.82533030    0.11460000
opls_146-184    H    0.46199038    0.96767015    0.82605007    0.11980000
opls_146-185    H    0.82774004    0.69904022    0.67367967    0.11710000
opls_146-186    H    0.67430983    0.59652991    0.87607983    0.11710000
opls_146-187    H    0.41106029    0.07022030    0.62359996    0.11720000
opls_910-188    H    0.93537997    0.43620996    0.41565029    0.28400000
opls_910-189    H    0.62803004    0.22213996    0.18669034    0.28430000
opls_910-190    H    0.73250027    0.83432011    0.08117983    0.28530000
opls_910-191    H    0.03857993    0.92771005    0.31351971    0.28740000
