#======================================================================
# Crystal Data Generated By AuToFF
#----------------------------------------------------------------------

data_AuToFF_phase_1

_cell_length_a                         18.4800
_cell_length_b                         18.4800
_cell_length_c                         3.7000
_cell_angle_alpha                      90.00
_cell_angle_beta                       90.00
_cell_angle_gamma                      120.00
_symmetry_space_group_name_H-M_alt     'P 1'
_symmetry_space_group_IT_number        1

loop_
_space_group_symop_operation_xyz
   'x, y, z'

loop_
   _atom_site_label
   _atom_site_type_symbol
   _atom_site_fract_x
   _atom_site_fract_y
   _atom_site_fract_z
   _atom_site_charge
opls_700-0    C    0.08892014    0.03172990    0.34941081    -0.18100000
opls_280-1    C    0.05847998    0.09070022    0.34917027    0.39120000
opls_142-2    C    0.17388018    0.05939022    0.34131892    0.08200000
opls_145-3    C    0.31815022    0.17569006    0.32098919    0.25910000
opls_145-4    C    0.35817986    0.12864976    0.36765135    -0.11630000
opls_523-5    C    0.44458002    0.16803017    0.35401892    -0.09630000
opls_700-6    C    0.49303034    0.25462021    0.29757027    -0.00690000
opls_523-7    C    0.45255022    0.30120000    0.25252973    -0.11440000
opls_145-8    C    0.36622998    0.26233008    0.26305946    -0.11620000
opls_531-9    C    0.58471021    0.29610007    0.29204865    0.32710000
opls_700-10    C    0.96826987    0.05719017    0.34941081    -0.18100000
opls_280-11    C    0.90930029    0.96778023    0.34917027    0.39120000
opls_142-12    C    0.94061041    0.11449030    0.34131892    0.05650000
opls_916-13    C    0.82431005    0.14245992    0.32098919    0.24550000
opls_145-14    C    0.87134988    0.22952984    0.36765135    -0.11630000
opls_523-15    C    0.83196988    0.27655014    0.35401892    -0.09630000
opls_700-16    C    0.74537980    0.23841004    0.29757027    -0.00690000
opls_523-17    C    0.69880006    0.15135012    0.25252973    -0.11440000
opls_145-18    C    0.73767020    0.10389993    0.26305946    -0.11620000
opls_531-19    C    0.70390031    0.28861014    0.29204865    0.32710000
opls_700-20    C    0.94280999    0.91107994    0.34941081    -0.18100000
opls_280-21    C    0.03222004    0.94152017    0.34917027    0.39120000
opls_142-22    C    0.88551027    0.82612010    0.34131892    0.05650000
opls_916-23    C    0.85754027    0.68185002    0.32098919    0.24540000
opls_145-24    C    0.77046995    0.64181978    0.36765135    -0.11630000
opls_523-25    C    0.72345010    0.55541969    0.35401892    -0.09630000
opls_700-26    C    0.76158986    0.50696975    0.29757027    -0.00690000
opls_523-27    C    0.84864972    0.54744988    0.25252973    -0.11440000
opls_145-28    C    0.89609982    0.63376999    0.26305946    -0.11620000
opls_531-29    C    0.71139002    0.41528978    0.29204865    0.42210000
opls_750-30    N    0.23168000    0.14044982    0.33137027    -0.29700000
opls_238-31    N    0.61978029    0.24745019    0.29158108    -0.32940000
opls_238-32    N    0.85955011    0.09123009    0.33137027    -0.18990000
opls_520-33    N    0.75254958    0.37232968    0.29158108    -0.34020000
opls_238-34    N    0.90876989    0.76832009    0.33137027    -0.18990000
opls_520-35    N    0.62767013    0.38022013    0.29158108    -0.35120000
opls_281-36    O    0.10851982    0.16902991    0.34602973    -0.36950000
opls_281-37    O    0.83097014    0.93949007    0.34602973    -0.36950000
opls_281-38    O    0.06051003    0.89148002    0.34602973    -0.36950000
opls_144-39    H    0.19663007    0.01230993    0.34304865    0.02840000
opls_146-40    H    0.31956990    0.05842984    0.41644054    0.04820000
opls_526-41    H    0.47735994    0.13009001    0.38884865    0.04820000
opls_526-42    H    0.49080970    0.37155988    0.20688919    0.04820000
opls_146-43    H    0.33415031    0.30082010    0.22455946    0.04820000
opls_910-44    H    0.57965021    0.17839998    0.29085946    0.28190000
opls_144-45    H    0.98768961    0.18431969    0.34304865    0.02840000
opls_146-46    H    0.94156988    0.26113977    0.41644054    0.04820000
opls_526-47    H    0.86990973    0.34725993    0.38884865    0.04820000
opls_526-48    H    0.62843978    0.11924969    0.20688919    0.04820000
opls_146-49    H    0.69918008    0.03332011    0.22455946    0.04820000
opls_910-50    H    0.81869973    0.02225985    0.33201081    0.27950000
opls_144-51    H    0.81568001    0.80336975    0.34304865    0.02840000
opls_146-52    H    0.73885990    0.68042976    0.41644054    0.04820000
opls_526-53    H    0.65273995    0.52264007    0.38884865    0.04820000
opls_526-54    H    0.88074966    0.50918980    0.20688919    0.04820000
opls_146-55    H    0.96667977    0.66584980    0.22455946    0.04820000
opls_910-56    H    0.97773986    0.79643967    0.33201081    0.27950000
