#======================================================================
# Crystal Data Generated By AuToFF
#----------------------------------------------------------------------

data_AuToFF_phase_1

_cell_length_a                         19.8859
_cell_length_b                         6.2542
_cell_length_c                         19.6534
_cell_angle_alpha                      90.00
_cell_angle_beta                       89.37
_cell_angle_gamma                      90.00
_symmetry_space_group_name_H-M_alt     'P 1'
_symmetry_space_group_IT_number        1

loop_
_space_group_symop_operation_xyz
   'x, y, z'

loop_
   _atom_site_label
   _atom_site_type_symbol
   _atom_site_fract_x
   _atom_site_fract_y
   _atom_site_fract_z
   _atom_site_charge
opls_700-0    C    0.47748006    0.00052924    0.47353019    -0.02340000
opls_700-1    C    0.50069022    0.00956957    0.40144004    0.08190000
opls_700-2    C    0.40209011    0.98956062    0.48426029    0.07840000
opls_145-3    C    0.52377992    0.82441080    0.36806006    -0.07240000
opls_145-4    C    0.53728985    0.82769019    0.29785011    -0.12620000
opls_145-5    C    0.52420982    0.01208948    0.25970985    0.23840000
opls_145-6    C    0.50252026    0.19857056    0.29303030    -0.12630000
opls_145-7    C    0.49193985    0.19811966    0.36358016    -0.07230000
opls_145-8    C    0.63980999    0.16596047    0.53095022    -0.07380000
opls_145-9    C    0.71129012    0.14497937    0.53138020    -0.08630000
opls_145-10    C    0.74205012    0.95086022    0.51395009    0.24720000
opls_145-11    C    0.70057034    0.77553964    0.49658003    -0.09560000
opls_145-12    C    0.62892002    0.79386013    0.49889020    -0.07430000
opls_142-13    C    0.85373011    0.82359055    0.47822992    0.04240000
opls_700-14    C    0.92845990    0.81456941    0.48952993    0.07240000
opls_142-15    C    0.51639040    0.07667008    0.85380008    0.03040000
opls_700-16    C    0.50753042    0.07074926    0.92848994    0.07040000
opls_145-17    C    0.95552993    0.81420965    0.55601001    -0.07410000
opls_145-18    C    0.02664033    0.81025071    0.56640987    -0.07430000
opls_145-19    C    0.44183015    0.06896006    0.95804032    -0.07450000
opls_145-20    C    0.43437990    0.07195005    0.02907003    -0.07410000
opls_700-21    C    0.52251993    0.00052924    0.52647032    -0.02340000
opls_700-22    C    0.49931028    0.00956957    0.59855996    0.08190000
opls_700-23    C    0.59790989    0.98956062    0.51574022    0.07840000
opls_145-24    C    0.47622008    0.82441080    0.63193994    -0.07240000
opls_145-25    C    0.46271015    0.82769019    0.70214989    -0.12620000
opls_145-26    C    0.47579018    0.01208948    0.74029015    0.23840000
opls_145-27    C    0.49748024    0.19857056    0.70697021    -0.12620000
opls_145-28    C    0.50806014    0.19811966    0.63642035    -0.07230000
opls_145-29    C    0.36019000    0.16596047    0.46905028    -0.07380000
opls_145-30    C    0.28870987    0.14497937    0.46862031    -0.08630000
opls_145-31    C    0.25794988    0.95086022    0.48604991    0.24720000
opls_145-32    C    0.29943016    0.77553964    0.50341997    -0.09560000
opls_145-33    C    0.37107997    0.79386013    0.50111031    -0.07430000
opls_142-34    C    0.14626989    0.82359055    0.52177008    0.04240000
opls_700-35    C    0.07154010    0.81456941    0.51047007    0.07260000
opls_142-36    C    0.48361010    0.07667008    0.14619992    0.03040000
opls_700-37    C    0.49247009    0.07074926    0.07151006    0.07040000
opls_145-38    C    0.04447007    0.81420965    0.44398999    -0.07410000
opls_145-39    C    0.97336017    0.81025071    0.43359013    -0.07430000
opls_145-40    C    0.55816984    0.06896006    0.04196019    -0.07440000
opls_145-41    C    0.56562010    0.07195005    0.97092997    -0.07410000
opls_750-42    N    0.81509012    0.93135013    0.51987004    -0.24850000
opls_750-43    N    0.46879034    0.00617025    0.81304027    -0.24840000
opls_750-44    N    0.18490988    0.93135013    0.48012996    -0.24850000
opls_750-45    N    0.53121016    0.00617025    0.18696024    -0.24840000
opls_146-46    H    0.53161994    0.67054939    0.39805009    0.05180000
opls_146-47    H    0.55898032    0.68001983    0.27163982    0.05180000
opls_146-48    H    0.49347007    0.35095936    0.26264998    0.05180000
opls_146-49    H    0.47612024    0.35216974    0.39030999    0.05180000
opls_146-50    H    0.61549019    0.32682997    0.54299010    0.05180000
opls_146-51    H    0.74396025    0.28716063    0.54602029    0.05180000
opls_146-52    H    0.72423030    0.61714048    0.48049023    0.05180000
opls_146-53    H    0.59624030    0.64910940    0.48702028    0.05180000
opls_144-54    H    0.83096005    0.73591986    0.43314998    0.03060000
opls_144-55    H    0.56519010    0.14331969    0.83141022    0.03060000
opls_146-56    H    0.92048010    0.81711010    0.60229033    0.05180000
opls_146-57    H    0.39579002    0.06511944    0.92401003    0.05180000
opls_146-58    H    0.04729996    0.80354961    0.62023997    0.05180000
opls_146-59    H    0.38199007    0.07534937    0.05317980    0.05180000
opls_146-60    H    0.46838006    0.67054939    0.60194991    0.05180000
opls_146-61    H    0.44102018    0.68001983    0.72836018    0.05180000
opls_146-62    H    0.50653043    0.35095936    0.73735002    0.05180000
opls_146-63    H    0.52388026    0.35216974    0.60969001    0.05180000
opls_146-64    H    0.38451032    0.32682997    0.45700990    0.05180000
opls_146-65    H    0.25604025    0.28716063    0.45398022    0.05180000
opls_146-66    H    0.27577020    0.61714048    0.51951028    0.05180000
opls_146-67    H    0.40376019    0.64910940    0.51298023    0.05180000
opls_144-68    H    0.16903995    0.73591986    0.56685002    0.03060000
opls_144-69    H    0.43480990    0.14331969    0.16858978    0.03060000
opls_146-70    H    0.07951989    0.81711010    0.39771018    0.05180000
opls_146-71    H    0.60420998    0.06511944    0.07598997    0.05180000
opls_146-72    H    0.95270004    0.80354961    0.37976003    0.05180000
opls_146-73    H    0.61801043    0.07534937    0.94682020    0.05180000
