#======================================================================
# Crystal Data Generated By AuToFF
#----------------------------------------------------------------------

data_AuToFF_phase_1

_cell_length_a                         21.8507
_cell_length_b                         21.8507
_cell_length_c                         3.4228
_cell_angle_alpha                      90.00
_cell_angle_beta                       90.00
_cell_angle_gamma                      90.00
_symmetry_space_group_name_H-M_alt     'P 1'
_symmetry_space_group_IT_number        1

loop_
_space_group_symop_operation_xyz
   'x, y, z'

loop_
   _atom_site_label
   _atom_site_type_symbol
   _atom_site_fract_x
   _atom_site_fract_y
   _atom_site_fract_z
   _atom_site_charge
opls_910-0    H    0.33076011    0.82869016    0.50000000    0.25100000
opls_525-1    H    0.74776003    0.58970010    0.50000000    0.23090000
opls_910-2    H    0.66923989    0.17130984    0.50000000    0.25100000
opls_525-3    H    0.25223997    0.41029990    0.50000000    0.23090000
opls_910-4    H    0.17130984    0.33076011    0.50000000    0.25100000
opls_525-5    H    0.41029990    0.74776003    0.50000000    0.23090000
opls_910-6    H    0.82869016    0.66923989    0.50000000    0.25100000
opls_525-7    H    0.58970010    0.25223997    0.50000000    0.23090000
opls_910-8    H    0.66923989    0.82869016    0.50000000    0.25100000
opls_525-9    H    0.25223997    0.58970010    0.50000000    0.23090000
opls_910-10    H    0.33076011    0.17130984    0.50000000    0.25100000
opls_525-11    H    0.74776003    0.41029990    0.50000000    0.23090000
opls_910-12    H    0.82869016    0.33076011    0.50000000    0.25100000
opls_525-13    H    0.58970010    0.74776003    0.50000000    0.23090000
opls_910-14    H    0.17130984    0.66923989    0.50000000    0.25100000
opls_525-15    H    0.41029990    0.25223997    0.50000000    0.23090000
opls_523-16    C    0.34686989    0.60920016    0.50000000    -0.01660000
opls_543-17    C    0.37699021    0.55393008    0.50000000    0.35810000
opls_521-18    C    0.26817997    0.68584988    0.50000000    0.12320000
opls_522-19    C    0.28471994    0.62347980    0.50000000    -0.23600000
opls_523-20    C    0.88952985    0.84528001    0.50000000    -0.05360000
opls_543-21    C    0.94504020    0.87531017    0.50000000    0.36260000
opls_521-22    C    0.81262019    0.76656995    0.50000000    0.03030000
opls_522-23    C    0.87506991    0.78315020    0.50000000    0.27300000
opls_523-24    C    0.65313011    0.39079984    0.50000000    -0.01660000
opls_543-25    C    0.62300979    0.44606992    0.50000000    0.35810000
opls_521-26    C    0.73182003    0.31415012    0.50000000    0.12320000
opls_522-27    C    0.71528006    0.37652020    0.50000000    -0.23600000
opls_523-28    C    0.11047015    0.15471999    0.50000000    -0.05360000
opls_543-29    C    0.05495980    0.12468983    0.50000000    0.36260000
opls_521-30    C    0.18737981    0.23343005    0.50000000    0.03030000
opls_522-31    C    0.12493009    0.21684980    0.50000000    0.27300000
opls_523-32    C    0.39079984    0.34686989    0.50000000    -0.01660000
opls_543-33    C    0.44606992    0.37699021    0.50000000    0.35810000
opls_521-34    C    0.31415012    0.26817997    0.50000000    0.12320000
opls_522-35    C    0.37652020    0.28471994    0.50000000    -0.23600000
opls_523-36    C    0.15471999    0.88952985    0.50000000    -0.05360000
opls_543-37    C    0.12468983    0.94504020    0.50000000    0.36260000
opls_521-38    C    0.23343005    0.81262019    0.50000000    0.03030000
opls_522-39    C    0.21684980    0.87506991    0.50000000    0.27300000
opls_523-40    C    0.60920016    0.65313011    0.50000000    -0.01660000
opls_543-41    C    0.55393008    0.62300979    0.50000000    0.35810000
opls_521-42    C    0.68584988    0.73182003    0.50000000    0.12320000
opls_522-43    C    0.62347980    0.71528006    0.50000000    -0.23600000
opls_523-44    C    0.84528001    0.11047015    0.50000000    -0.05360000
opls_543-45    C    0.87531017    0.05495980    0.50000000    0.36260000
opls_521-46    C    0.76656995    0.18737981    0.50000000    0.03030000
opls_522-47    C    0.78315020    0.12493009    0.50000000    0.27300000
opls_523-48    C    0.65313011    0.60920016    0.50000000    -0.01660000
opls_543-49    C    0.62300979    0.55393008    0.50000000    0.35810000
opls_521-50    C    0.73182003    0.68584988    0.50000000    0.12320000
opls_522-51    C    0.71528006    0.62347980    0.50000000    -0.23600000
opls_523-52    C    0.11047015    0.84528001    0.50000000    -0.05360000
opls_543-53    C    0.05495980    0.87531017    0.50000000    0.36260000
opls_521-54    C    0.18737981    0.76656995    0.50000000    0.03030000
opls_522-55    C    0.12493009    0.78315020    0.50000000    0.27300000
opls_523-56    C    0.34686989    0.39079984    0.50000000    -0.01660000
opls_543-57    C    0.37699021    0.44606992    0.50000000    0.35810000
opls_521-58    C    0.26817997    0.31415012    0.50000000    0.12320000
opls_522-59    C    0.28471994    0.37652020    0.50000000    -0.23600000
opls_523-60    C    0.88952985    0.15471999    0.50000000    -0.05360000
opls_543-61    C    0.94504020    0.12468983    0.50000000    0.36270000
opls_521-62    C    0.81262019    0.23343005    0.50000000    0.03030000
opls_522-63    C    0.87506991    0.21684980    0.50000000    0.27300000
opls_523-64    C    0.60920016    0.34686989    0.50000000    -0.01660000
opls_543-65    C    0.55393008    0.37699021    0.50000000    0.35810000
opls_521-66    C    0.68584988    0.26817997    0.50000000    0.12320000
opls_522-67    C    0.62347980    0.28471994    0.50000000    -0.23600000
opls_523-68    C    0.84528001    0.88952985    0.50000000    -0.05360000
opls_543-69    C    0.87531017    0.94504020    0.50000000    0.36260000
opls_521-70    C    0.76656995    0.81262019    0.50000000    0.03030000
opls_522-71    C    0.78315020    0.87506991    0.50000000    0.27300000
opls_523-72    C    0.39079984    0.65313011    0.50000000    -0.01660000
opls_543-73    C    0.44606992    0.62300979    0.50000000    0.35810000
opls_521-74    C    0.31415012    0.73182003    0.50000000    0.12320000
opls_522-75    C    0.37652020    0.71528006    0.50000000    -0.23600000
opls_523-76    C    0.15471999    0.11047015    0.50000000    -0.05360000
opls_543-77    C    0.12468983    0.05495980    0.50000000    0.36260000
opls_521-78    C    0.23343005    0.18737981    0.50000000    0.03030000
opls_522-79    C    0.21684980    0.12493009    0.50000000    0.27320000
opls_238-80    N    0.20492982    0.70325985    0.50000000    -0.39820000
opls_238-81    N    0.79507018    0.29674015    0.50000000    -0.39820000
opls_238-82    N    0.29674015    0.20492982    0.50000000    -0.39820000
opls_238-83    N    0.70325985    0.79507018    0.50000000    -0.39810000
opls_238-84    N    0.79507018    0.70325985    0.50000000    -0.39820000
opls_238-85    N    0.20492982    0.29674015    0.50000000    -0.39820000
opls_238-86    N    0.70325985    0.20492982    0.50000000    -0.39820000
opls_238-87    N    0.29674015    0.79507018    0.50000000    -0.39820000
opls_750-88    N    0.34804011    0.50000000    0.50000000    -0.42440000
opls_750-89    N    0.65195989    0.50000000    0.50000000    -0.42440000
opls_750-90    N    0.50000000    0.34804011    0.50000000    -0.42440000
opls_750-91    N    0.50000000    0.65195989    0.50000000    -0.42430000
opls_750-92    N    0.00000000    0.84698019    0.50000000    -0.45080000
opls_750-93    N    0.00000000    0.15301981    0.50000000    -0.45080000
opls_750-94    N    0.15301981    0.00000000    0.50000000    -0.45080000
opls_750-95    N    0.84698019    0.00000000    0.50000000    -0.45080000
opls_542-96    N    0.06327989    0.93672011    0.50000000    -0.42210000
opls_542-97    N    0.43874018    0.56125982    0.50000000    -0.39230000
opls_542-98    N    0.93672011    0.06327989    0.50000000    -0.42210000
opls_542-99    N    0.56125982    0.43874018    0.50000000    -0.39230000
opls_542-100    N    0.06327989    0.06327989    0.50000000    -0.42210000
opls_542-101    N    0.43874018    0.43874018    0.50000000    -0.39230000
opls_542-102    N    0.93672011    0.93672011    0.50000000    -0.42210000
opls_542-103    N    0.56125982    0.56125982    0.50000000    -0.39230000
opls_719-104    F    0.08267012    0.25750022    0.50000000    -0.21280000
opls_719-105    F    0.91732988    0.74249978    0.50000000    -0.21280000
opls_719-106    F    0.74249978    0.08267012    0.50000000    -0.21280000
opls_719-107    F    0.25750022    0.91732988    0.50000000    -0.21280000
opls_719-108    F    0.91732988    0.25750022    0.50000000    -0.21280000
opls_719-109    F    0.08267012    0.74249978    0.50000000    -0.21280000
opls_719-110    F    0.25750022    0.08267012    0.50000000    -0.21280000
opls_719-111    F    0.74249978    0.91732988    0.50000000    -0.21280000
F2_Co4+2-112    Co    0.00000000    0.00000000    0.50000000    0.63780000
F2_Ni4+2-113    Ni    0.50000000    0.50000000    0.50000000    0.42490000
