#======================================================================
# Crystal Data Generated By AuToFF
#----------------------------------------------------------------------

data_AuToFF_phase_1

_cell_length_a                         37.5250
_cell_length_b                         37.5250
_cell_length_c                         5.4230
_cell_angle_alpha                      90.00
_cell_angle_beta                       90.00
_cell_angle_gamma                      120.00
_symmetry_space_group_name_H-M_alt     'P 1'
_symmetry_space_group_IT_number        1

loop_
_space_group_symop_operation_xyz
   'x, y, z'

loop_
   _atom_site_label
   _atom_site_type_symbol
   _atom_site_fract_x
   _atom_site_fract_y
   _atom_site_fract_z
   _atom_site_charge
opls_700-0    C    0.70944993    0.35938008    0.35342062    0.12240000
opls_145-1    C    0.68338993    0.37608993    0.35411027    -0.18210000
opls_261-2    C    0.75308002    0.38595004    0.32300018    -0.12390000
opls_261-3    C    0.78934005    0.40805998    0.28550065    -0.12390000
opls_700-4    C    0.83219000    0.43428007    0.22716024    0.11660000
opls_145-5    C    0.84535991    0.47266998    0.11999078    -0.17050000
opls_700-6    C    0.88653998    0.49798016    0.04151945    -0.04430000
opls_166-7    C    0.91370999    0.48188020    0.06279919    0.21310000
opls_700-8    C    0.90077013    0.44406018    0.18775954    -0.06280000
opls_145-9    C    0.85988993    0.42041997    0.26475014    -0.07240000
opls_516-10    C    0.90003005    0.53997003    0.91515951    0.23910000
opls_135-11    C    0.87092009    0.55703006    0.97664946    -0.47970000
opls_135-12    C    0.89915993    0.53404005    0.63463028    -0.47970000
opls_135-13    C    0.94402997    0.57333003    0.99435921    -0.47960000
opls_142-14    C    0.92850015    0.42759004    0.23817075    0.06430000
opls_136-15    C    0.99427990    0.43599004    0.36340955    -0.08820000
opls_700-16    C    0.64062016    0.35007016    0.35342062    0.12250000
opls_145-17    C    0.62391006    0.30729992    0.35411027    -0.18210000
opls_261-18    C    0.61405010    0.36713019    0.32300018    -0.12390000
opls_261-19    C    0.59194001    0.38128016    0.28550065    -0.12390000
opls_700-20    C    0.56572009    0.39791000    0.22716024    0.11660000
opls_145-21    C    0.52732994    0.37268998    0.11999078    -0.17060000
opls_700-22    C    0.50201995    0.38856008    0.04151945    -0.04430000
opls_166-23    C    0.51811995    0.43183004    0.06279919    0.21310000
opls_700-24    C    0.55594009    0.45671003    0.18775954    -0.06280000
opls_145-25    C    0.57957990    0.43946999    0.26475014    -0.07240000
opls_516-26    C    0.46003006    0.36006013    0.91515951    0.23910000
opls_135-27    C    0.44297002    0.31388995    0.97664946    -0.47970000
opls_135-28    C    0.46595981    0.36511989    0.63463028    -0.47970000
opls_135-29    C    0.42666992    0.37069999    0.99435921    -0.47970000
opls_142-30    C    0.57240992    0.50090991    0.23817075    0.06430000
opls_136-31    C    0.56401010    0.55829015    0.36340955    -0.08820000
opls_700-32    C    0.64993007    0.29055007    0.35342062    0.12240000
opls_145-33    C    0.69270001    0.31661015    0.35411027    -0.18210000
opls_261-34    C    0.63287003    0.24692008    0.32300018    -0.12390000
opls_261-35    C    0.61872009    0.21066017    0.28550065    -0.12390000
opls_700-36    C    0.60208991    0.16780993    0.22716024    0.11660000
opls_145-37    C    0.62730989    0.15464003    0.11999078    -0.17060000
opls_700-38    C    0.61143996    0.11346007    0.04151945    -0.04430000
opls_166-39    C    0.56816995    0.08629006    0.06279919    0.21310000
opls_700-40    C    0.54328993    0.09923010    0.18775954    -0.06280000
opls_145-41    C    0.56052990    0.14011004    0.26475014    -0.07240000
opls_516-42    C    0.63994004    0.09997015    0.91515951    0.23910000
opls_135-43    C    0.68610988    0.12907999    0.97664946    -0.47970000
opls_135-44    C    0.63487999    0.10084006    0.63463028    -0.47970000
opls_135-45    C    0.62930011    0.05596998    0.99435921    -0.47970000
opls_142-46    C    0.49908993    0.07150005    0.23817075    0.06430000
opls_136-47    C    0.44171016    0.00572011    0.36340955    -0.08820000
opls_700-48    C    0.35937999    0.70944993    0.64657938    0.12240000
opls_145-49    C    0.37609002    0.68339016    0.64588973    -0.18210000
opls_261-50    C    0.38595011    0.75308023    0.67699982    -0.12390000
opls_261-51    C    0.40806007    0.78934014    0.71449935    -0.12390000
opls_700-52    C    0.43427998    0.83219007    0.77283976    0.11660000
opls_145-53    C    0.47266986    0.84535997    0.88000922    -0.17060000
opls_700-54    C    0.49798005    0.88654024    0.95848055    -0.04430000
opls_166-55    C    0.48188004    0.91371024    0.93720081    0.21310000
opls_700-56    C    0.44405999    0.90077021    0.81224046    -0.06280000
opls_145-57    C    0.42041986    0.85988996    0.73524986    -0.07240000
opls_516-58    C    0.53997004    0.90003016    0.08484049    0.23910000
opls_135-59    C    0.55702989    0.87092001    0.02335054    -0.47970000
opls_135-60    C    0.53403993    0.89915994    0.36536972    -0.47970000
opls_135-61    C    0.57333013    0.94403002    0.00564079    -0.47970000
opls_142-62    C    0.42758988    0.92849995    0.76182925    0.06430000
opls_136-63    C    0.43599020    0.99428019    0.63659045    -0.08820000
opls_700-64    C    0.35006985    0.64061992    0.64657938    0.12240000
opls_145-65    C    0.30730001    0.62391007    0.64588973    -0.18210000
opls_261-66    C    0.36712998    0.61404996    0.67699982    -0.12390000
opls_261-67    C    0.38128007    0.59194002    0.71449935    -0.12390000
opls_700-68    C    0.39790993    0.56571993    0.77283976    0.11660000
opls_145-69    C    0.37268993    0.52733002    0.88000922    -0.17060000
opls_700-70    C    0.38855997    0.50202015    0.95848055    -0.04430000
opls_166-71    C    0.43182994    0.51812011    0.93720081    0.21310000
opls_700-72    C    0.45671011    0.55594013    0.81224046    -0.06280000
opls_145-73    C    0.43946996    0.57958003    0.73524986    -0.07240000
opls_516-74    C    0.36006002    0.46002997    0.08484049    0.23910000
opls_135-75    C    0.31389003    0.44296994    0.02335054    -0.47960000
opls_135-76    C    0.36511988    0.46595995    0.36536972    -0.47970000
opls_135-77    C    0.37069994    0.42666997    0.00564079    -0.47970000
opls_142-78    C    0.50091011    0.57240996    0.76182925    0.06430000
opls_136-79    C    0.55828986    0.56400996    0.63659045    -0.08820000
opls_700-80    C    0.29055015    0.64993015    0.64657938    0.12250000
opls_145-81    C    0.31661013    0.69270008    0.64588973    -0.18210000
opls_261-82    C    0.24692007    0.63287012    0.67699982    -0.12390000
opls_261-83    C    0.21066001    0.61872015    0.71449935    -0.12390000
opls_700-84    C    0.16781009    0.60209000    0.77283976    0.11670000
opls_145-85    C    0.15463995    0.62731002    0.88000922    -0.17060000
opls_700-86    C    0.11345987    0.61143992    0.95848055    -0.04430000
opls_166-87    C    0.08628991    0.56816996    0.93720081    0.21310000
opls_700-88    C    0.09923006    0.54328997    0.81224046    -0.06280000
opls_145-89    C    0.14010991    0.56053001    0.73524986    -0.07240000
opls_516-90    C    0.09997009    0.63994018    0.08484049    0.23910000
opls_135-91    C    0.12908008    0.68611005    0.02335054    -0.47970000
opls_135-92    C    0.10084019    0.63488011    0.36536972    -0.47970000
opls_135-93    C    0.05596992    0.62930001    0.00564079    -0.47970000
opls_142-94    C    0.07150001    0.49909009    0.76182925    0.06470000
opls_136-95    C    0.00572010    0.44171016    0.63659045    -0.08820000
opls_750-96    N    0.96634991    0.45148996    0.30721925    -0.27720000
opls_750-97    N    0.54851017    0.51486017    0.30721925    -0.27720000
opls_750-98    N    0.48513992    0.03364987    0.30721925    -0.27710000
opls_750-99    N    0.45149006    0.96635013    0.69278075    -0.27720000
opls_750-100    N    0.51485995    0.54851004    0.69278075    -0.27710000
opls_750-101    N    0.03365015    0.48514013    0.69278075    -0.27710000
opls_167-102    O    0.95197021    0.50232017    0.94520929    -0.43780000
opls_167-103    O    0.49767996    0.44965013    0.94520929    -0.43770000
opls_167-104    O    0.55034998    0.04803001    0.94520929    -0.43780000
opls_167-105    O    0.50231997    0.95196999    0.05479071    -0.43780000
opls_167-106    O    0.44965019    0.49768014    0.05479071    -0.43770000
opls_167-107    O    0.04802999    0.55035018    0.05479071    -0.43780000
opls_146-108    H    0.69634005    0.40916991    0.34465056    0.10420000
opls_146-109    H    0.82253007    0.48181004    0.09463950    0.11470000
opls_146-110    H    0.84944996    0.39083009    0.35236032    0.10460000
opls_140-111    H    0.86703009    0.55795997    0.17905956    0.15810000
opls_140-112    H    0.84023986    0.53838991    0.88936935    0.15840000
opls_140-113    H    0.88326012    0.58874009    0.90371934    0.15600000
opls_140-114    H    0.86758994    0.51111005    0.57415084    0.15800000
opls_140-115    H    0.92034002    0.52295000    0.57727088    0.15810000
opls_140-116    H    0.90845001    0.56360008    0.53924949    0.15810000
opls_140-117    H    0.96801001    0.57122003    0.88680066    0.15920000
opls_140-118    H    0.94924998    0.57081015    0.19321040    0.15850000
opls_140-119    H    0.94972000    0.60493021    0.95964964    0.15840000
opls_144-120    H    0.91579000    0.39451990    0.23344090    0.10420000
opls_140-121    H    0.02247010    0.45259004    0.24891942    0.05120000
opls_140-122    H    0.97987999    0.40269989    0.31751982    0.05810000
opls_168-123    H    0.96490999    0.48482011    0.91139037    0.30680000
opls_146-124    H    0.59083010    0.28717013    0.34465056    0.10420000
opls_146-125    H    0.51818995    0.34071993    0.09463950    0.11470000
opls_146-126    H    0.60917010    0.45862002    0.35236032    0.10400000
opls_140-127    H    0.44204008    0.30906990    0.17905956    0.15810000
opls_140-128    H    0.46160987    0.30184998    0.88936935    0.15840000
opls_140-129    H    0.41125995    0.29451990    0.90371934    0.15590000
opls_140-130    H    0.48889005    0.35648017    0.57415084    0.15800000
opls_140-131    H    0.47704994    0.39738996    0.57727088    0.15820000
opls_140-132    H    0.43639999    0.34485008    0.53924949    0.15810000
opls_140-133    H    0.42878004    0.39678992    0.88680066    0.15920000
opls_140-134    H    0.42918986    0.37843995    0.19321040    0.15850000
opls_140-135    H    0.39507006    0.34479008    0.95964964    0.15840000
opls_144-136    H    0.60548013    0.52127019    0.23344090    0.10420000
opls_140-137    H    0.54741005    0.56987993    0.24891942    0.05120000
opls_140-138    H    0.59730001    0.57718016    0.31751982    0.05810000
opls_168-139    H    0.51517993    0.48008991    0.91139037    0.30680000
opls_146-140    H    0.71283011    0.30365996    0.34465056    0.10460000
opls_146-141    H    0.65927998    0.17747003    0.09463950    0.11470000
opls_146-142    H    0.54137994    0.15054989    0.35236032    0.10460000
opls_140-143    H    0.69093010    0.13297013    0.17905956    0.15810000
opls_140-144    H    0.69815001    0.15976011    0.88936935    0.15840000
opls_140-145    H    0.70547993    0.11674001    0.90371934    0.15590000
opls_140-146    H    0.64352017    0.13241009    0.57415084    0.15800000
opls_140-147    H    0.60261003    0.07966004    0.57727088    0.15820000
opls_140-148    H    0.65515016    0.09155015    0.53924949    0.15810000
opls_140-149    H    0.60320995    0.03199005    0.88680066    0.15920000
opls_140-150    H    0.62155989    0.05074990    0.19321040    0.15860000
opls_140-151    H    0.65521010    0.05028002    0.95964964    0.15840000
opls_144-152    H    0.47872987    0.08420991    0.23344090    0.10430000
opls_140-153    H    0.43012011    0.97753003    0.24891942    0.05120000
opls_140-154    H    0.42282000    0.02011995    0.31751982    0.05810000
opls_168-155    H    0.51991008    0.03508998    0.91139037    0.30680000
opls_146-156    H    0.40917015    0.69634004    0.65534944    0.10420000
opls_146-157    H    0.48180996    0.82252997    0.90536050    0.11470000
opls_146-158    H    0.39083005    0.84945011    0.64763968    0.10460000
opls_140-159    H    0.55796013    0.86703018    0.82094044    0.15810000
opls_140-160    H    0.53839005    0.84024020    0.11063065    0.15840000
opls_140-161    H    0.58873992    0.88325999    0.09628066    0.15600000
opls_140-162    H    0.51111023    0.86759022    0.42584916    0.15800000
opls_140-163    H    0.52295000    0.92033996    0.42272912    0.15810000
opls_140-164    H    0.56360016    0.90845016    0.46075051    0.15810000
opls_140-165    H    0.57121990    0.96800995    0.11319934    0.15920000
opls_140-166    H    0.57080999    0.94925010    0.80678960    0.15850000
opls_140-167    H    0.60493008    0.94971998    0.04035036    0.15840000
opls_144-168    H    0.39451996    0.91579009    0.76655910    0.10420000
opls_140-169    H    0.45259008    0.02246997    0.75108058    0.05120000
opls_140-170    H    0.40270005    0.97988005    0.68248018    0.05810000
opls_168-171    H    0.48482010    0.96491002    0.08860963    0.30690000
opls_146-172    H    0.28717014    0.59083009    0.65534944    0.10420000
opls_146-173    H    0.34072003    0.51818996    0.90536050    0.11470000
opls_146-174    H    0.45861986    0.60916991    0.64763968    0.10460000
opls_140-175    H    0.30907011    0.44204003    0.82094044    0.15810000
opls_140-176    H    0.30184995    0.46161009    0.11063065    0.15850000
opls_140-177    H    0.29452003    0.41125991    0.09628066    0.15590000
opls_140-178    H    0.35647988    0.48888995    0.42584916    0.15800000
opls_140-179    H    0.39739002    0.47705000    0.42272912    0.15810000
opls_140-180    H    0.34484993    0.43639992    0.46075051    0.15810000
opls_140-181    H    0.39678999    0.42877997    0.11319934    0.15920000
opls_140-182    H    0.37843998    0.42919016    0.80678960    0.15850000
opls_140-183    H    0.34478995    0.39507010    0.04035036    0.15840000
opls_144-184    H    0.52127010    0.60548010    0.76655910    0.10430000
opls_140-185    H    0.56988006    0.54740996    0.75108058    0.05120000
opls_140-186    H    0.57718010    0.59730011    0.68248018    0.05810000
opls_168-187    H    0.48009003    0.51518020    0.08860963    0.30680000
opls_146-188    H    0.30366013    0.71283018    0.65534944    0.10420000
opls_146-189    H    0.17747001    0.65928007    0.90536050    0.11470000
opls_146-190    H    0.15055008    0.54137998    0.64763968    0.10400000
opls_140-191    H    0.13297018    0.69093010    0.82094044    0.15810000
opls_140-192    H    0.15975989    0.69815002    0.11063065    0.15840000
opls_140-193    H    0.11674005    0.70548010    0.09628066    0.15590000
opls_140-194    H    0.13241004    0.64352014    0.42584916    0.15810000
opls_140-195    H    0.07965998    0.60261004    0.42272912    0.15810000
opls_140-196    H    0.09154991    0.65514992    0.46075051    0.15810000
opls_140-197    H    0.03199012    0.60321008    0.11319934    0.15920000
opls_140-198    H    0.05074991    0.62156005    0.80678960    0.15860000
opls_140-199    H    0.05027998    0.65520992    0.04035036    0.15840000
opls_144-200    H    0.08421010    0.47873012    0.76655910    0.10420000
opls_140-201    H    0.97753012    0.43012007    0.75108058    0.05120000
opls_140-202    H    0.02012000    0.42282015    0.68248018    0.05810000
opls_168-203    H    0.03509002    0.51991009    0.08860963    0.30680000
