#======================================================================
# Crystal Data Generated By AuToFF
#----------------------------------------------------------------------

data_AuToFF_phase_1

_cell_length_a                         29.5152
_cell_length_b                         29.8231
_cell_length_c                         3.7400
_cell_angle_alpha                      78.33
_cell_angle_beta                       90.58
_cell_angle_gamma                      59.84
_symmetry_space_group_name_H-M_alt     'P 1'
_symmetry_space_group_IT_number        1

loop_
_space_group_symop_operation_xyz
   'x, y, z'

loop_
   _atom_site_label
   _atom_site_type_symbol
   _atom_site_fract_x
   _atom_site_fract_y
   _atom_site_fract_z
   _atom_site_charge
opls_700-0    C    0.20264987    0.77423031    0.21443917    -0.24450000
opls_166-1    C    0.25724980    0.74414027    0.19937037    0.16280000
opls_700-2    C    0.28978972    0.76702032    0.17928873    -0.23020000
opls_166-3    C    0.26532005    0.82214004    0.17817874    0.29780000
opls_700-4    C    0.21127984    0.85319004    0.19862946    -0.10550000
opls_166-5    C    0.18058983    0.82855021    0.22405996    0.34410000
opls_142-6    C    0.16648992    0.75388018    0.21080899    0.11440000
opls_142-7    C    0.34525989    0.73236012    0.15729009    0.11260000
opls_142-8    C    0.19116978    0.91097027    0.18166018    0.11210000
opls_521-9    C    0.59762977    0.61232022    0.13962123    0.14460000
opls_522-10    C    0.62294995    0.55764014    0.23073915    -0.18750000
opls_523-11    C    0.67699995    0.52489013    0.23051054    -0.17170000
opls_521-12    C    0.67682007    0.60226997    0.05010081    -0.03080000
opls_522-13    C    0.70555004    0.54720015    0.14124076    0.15120000
opls_522-14    C    0.01281017    0.27579972    0.97978065    0.14800000
opls_521-15    C    0.06829983    0.24050012    0.01623938    0.05880000
opls_523-16    C    0.98136994    0.25534998    0.93448059    -0.18710000
opls_522-17    C    0.00614017    0.20154977    0.93300979    -0.11670000
opls_522-18    C    0.14370994    0.69270008    0.14937973    0.14870000
opls_523-19    C    0.09090991    0.72639002    0.06426895    -0.16370000
opls_521-20    C    0.16237993    0.63753011    0.21511122    0.02210000
opls_522-21    C    0.05963014    0.70411000    0.05200128    -0.17210000
opls_521-22    C    0.08111002    0.64881027    0.12432933    0.13810000
opls_521-23    C    0.04941002    0.62349022    0.11486003    0.13800000
opls_522-24    C    0.07188987    0.56792996    0.18510031    -0.12570000
opls_523-25    C    0.04129983    0.54490012    0.17420979    -0.19000000
opls_521-26    C    0.96838987    0.63354010    0.02930030    0.01240000
opls_522-27    C    0.98806001    0.57814009    0.09324975    0.14960000
opls_142-28    C    0.96723008    0.51518017    0.03837022    0.11500000
opls_700-29    C    0.93244013    0.49309988    0.03927088    -0.17950000
opls_166-30    C    0.87796993    0.52152992    0.05925061    0.21780000
opls_231-31    C    0.95540991    0.43885987    0.03198024    0.18670000
opls_700-32    C    0.84743016    0.49662993    0.08643009    -0.19780000
opls_700-33    C    0.92597987    0.41280004    0.04899909    -0.17800000
opls_166-34    C    0.87256998    0.44178985    0.08251071    0.35090000
opls_142-35    C    0.79220002    0.53004989    0.11532000    0.09740000
opls_142-36    C    0.94782994    0.35702985    0.03943063    0.11450000
opls_522-37    C    0.43237015    0.71436004    0.13220939    0.15010000
opls_523-38    C    0.46140988    0.73633999    0.04468034    -0.16280000
opls_521-39    C    0.46080994    0.65929019    0.22374046    0.02600000
opls_522-40    C    0.51544009    0.70334998    0.04550938    -0.16580000
opls_521-41    C    0.54038000    0.64868026    0.13613979    0.14460000
opls_521-42    C    0.06160004    0.16870975    0.97775072    0.15930000
opls_521-43    C    0.08867990    0.11084010    0.98931881    0.15260000
opls_522-44    C    0.14351981    0.07720006    0.04869887    -0.16500000
opls_521-45    C    0.08121005    0.03847992    0.96465951    0.05880000
opls_523-46    C    0.16715985    0.02224999    0.07079941    -0.18640000
opls_522-47    C    0.13519993    0.00174989    0.03280102    0.14810000
opls_181-48    C    0.34717979    0.84165020    0.15389954    -0.19140000
opls_181-49    C    0.27461009    0.64266999    0.27343087    -0.18990000
opls_181-50    C    0.07069979    0.86142017    0.22685007    -0.21270000
MOF2_C_2-51    C    0.06564001    0.40925006    0.01904877    -0.21280000
opls_181-52    C    0.79760993    0.62909000    0.95796104    -0.21270000
opls_181-53    C    0.79146002    0.42193991    0.11704970    -0.19470000
opls_750-54    N    0.17925007    0.71046015    0.16139125    -0.17500000
opls_750-55    N    0.37848994    0.74865023    0.13794110    -0.28780000
opls_750-56    N    0.15388975    0.94698026    0.05376128    -0.14960000
opls_750-57    N    0.95319017    0.55936991    0.08411097    -0.18180000
opls_750-58    N    0.75928013    0.51339996    0.13157866    -0.27560000
opls_750-59    N    0.99288994    0.32930008    0.98430872    -0.17970000
opls_520-60    N    0.13196003    0.61678999    0.20422896    -0.17780000
opls_520-61    N    0.99823011    0.65505008    0.03824077    -0.17760000
opls_520-62    N    0.51265007    0.62806988    0.22393050    -0.17670000
opls_520-63    N    0.62501978    0.63321024    0.05096015    -0.17670000
opls_520-64    N    0.09155014    0.18887997    0.01726123    -0.16790000
opls_520-65    N    0.05882000    0.09093998    0.94610101    -0.16850000
opls_179-66    O    0.28967001    0.85216021    0.12608106    -0.22520000
opls_179-67    O    0.12830989    0.85269009    0.25417002    -0.22550000
opls_179-68    O    0.28126980    0.69104020    0.18437042    -0.22690000
opls_179-69    O    0.85273012    0.57497008    0.07327002    -0.22460000
opls_272-70    O    0.00843016    0.41249990    0.99936926    -0.13410000
opls_179-71    O    0.84825991    0.41183003    0.13333040    -0.22530000
opls_185-72    H    0.36848987    0.82631002    0.94353950    0.20190000
opls_185-73    H    0.36959972    0.82908030    0.41084866    0.20190000
opls_185-74    H    0.35147997    0.87667008    0.09548900    0.09530000
opls_185-75    H    0.25705004    0.63673022    0.05284960    0.20190000
opls_185-76    H    0.25766983    0.63837007    0.51376877    0.20190000
opls_185-77    H    0.31192017    0.60393998    0.33960030    0.10330000
opls_185-78    H    0.05859004    0.84649025    0.47317858    0.11250000
opls_185-79    H    0.05841982    0.84943015    0.00646986    0.10720000
opls_185-80    H    0.03901997    0.90381005    0.16323113    0.09960000
opls_144-81    H    0.07747004    0.42272993    0.23106966    0.10980000
opls_144-82    H    0.10086007    0.36885990    0.08885112    0.10330000
opls_144-83    H    0.08029005    0.42007997    0.77229885    0.11440000
opls_185-84    H    0.77026009    0.63918981    0.16028953    0.11240000
opls_185-85    H    0.77326995    0.63802003    0.70685106    0.10050000
opls_185-86    H    0.80100019    0.66480985    0.90592947    0.09990000
opls_185-87    H    0.78737986    0.38647994    0.16780879    0.09620000
opls_185-88    H    0.77034983    0.43976007    0.85496932    0.20190000
opls_185-89    H    0.76992998    0.43623991    0.33300924    0.20180000
opls_144-90    H    0.12559006    0.78081009    0.16729098    0.11910000
opls_144-91    H    0.35909992    0.68999006    0.22123128    0.10660000
opls_144-92    H    0.22205990    0.92194008    0.17522062    0.06020000
opls_525-93    H    0.59925012    0.53667001    0.26571882    0.04130000
opls_526-94    H    0.69070988    0.48066999    0.29970970    0.04160000
opls_524-95    H    0.20844989    0.60396025    0.27329867    0.01910000
opls_525-96    H    0.11933011    0.54031011    0.23687023    0.03770000
opls_526-97    H    0.06387000    0.49859984    0.25353102    0.03920000
opls_144-98    H    0.77007015    0.57346000    0.04498055    0.10590000
opls_524-99    H    0.43880980    0.63698019    0.26270010    0.03030000
opls_524-100    H    0.69565017    0.62931004    0.00082905    0.02000000
opls_524-101    H    0.09891988    0.25342014    0.00241002    0.02760000
opls_526-102    H    0.93633015    0.27403984    0.90792909    0.03970000
opls_525-103    H    0.98248984    0.17958999    0.96462095    0.03930000
opls_526-104    H    0.06626993    0.77164021    0.99167924    0.04280000
opls_525-105    H    0.01525006    0.73251010    0.00107969    0.04280000
opls_524-106    H    0.92440978    0.66191015    0.97746979    0.04420000
opls_144-107    H    0.00899995    0.48704017    0.08207003    0.10560000
opls_144-108    H    0.92106006    0.34271994    0.06442044    0.10520000
opls_526-109    H    0.44483996    0.78212017    0.96708881    0.03920000
opls_525-110    H    0.54279002    0.72195019    0.00956019    0.03820000
opls_525-111    H    0.17222004    0.09297008    0.03090055    0.03920000
opls_524-112    H    0.05393995    0.02052975    0.98783974    0.02700000
opls_526-113    H    0.21135995    0.99860006    0.10965990    0.07670000
