#======================================================================
# Crystal Data Generated By AuToFF
#----------------------------------------------------------------------

data_AuToFF_phase_1

_cell_length_a                         45.8744
_cell_length_b                         48.5738
_cell_length_c                         3.9355
_cell_angle_alpha                      90.00
_cell_angle_beta                       72.30
_cell_angle_gamma                      90.00
_symmetry_space_group_name_H-M_alt     'P 1'
_symmetry_space_group_IT_number        1

loop_
_space_group_symop_operation_xyz
   'x, y, z'

loop_
   _atom_site_label
   _atom_site_type_symbol
   _atom_site_fract_x
   _atom_site_fract_y
   _atom_site_fract_z
   _atom_site_charge
opls_750-0    N    0.64131986    0.61986997    0.62578117    -0.27150000
opls_750-1    N    0.14131986    0.11986997    0.62578117    -0.27130000
opls_750-2    N    0.35867985    0.61986997    0.37422149    -0.27150000
opls_750-3    N    0.85867985    0.11986997    0.37422149    -0.27150000
opls_750-4    N    0.35867985    0.38013003    0.37422149    -0.27150000
opls_750-5    N    0.85867985    0.88013003    0.37422149    -0.27150000
opls_750-6    N    0.64131986    0.38013003    0.62578117    -0.27140000
opls_750-7    N    0.14131986    0.88013003    0.62578117    -0.27140000
opls_700-8    C    0.56247008    0.52528997    0.06679078    0.03830000
opls_700-9    C    0.53122994    0.52535997    0.28068079    0.02360000
opls_145-10    C    0.51520992    0.54994009    0.39593030    -0.09240000
opls_700-11    C    0.58180994    0.55064994    0.96143947    0.08180000
opls_145-12    C    0.57246986    0.57319007    0.79674968    -0.07730000
opls_145-13    C    0.59125995    0.59634000    0.69108096    -0.13490000
opls_145-14    C    0.62052005    0.59705006    0.73681908    0.23100000
opls_145-15    C    0.63012984    0.57443992    0.89472070    -0.13460000
opls_145-16    C    0.61106994    0.55153992    0.00703089    -0.07710000
opls_142-17    C    0.63701004    0.64226002    0.46542035    0.01640000
opls_700-18    C    0.66058998    0.66411996    0.36956980    0.06940000
opls_145-19    C    0.68980009    0.66021991    0.40783960    -0.07710000
opls_145-20    C    0.65376005    0.68936999    0.23747923    -0.07510000
opls_145-21    C    0.28825987    0.68121992    0.68435947    -0.07710000
opls_700-22    C    0.29530006    0.70662003    0.81133958    0.07450000
opls_145-23    C    0.32441986    0.71045008    0.85094034    -0.07500000
opls_145-24    C    0.24288997    0.27649000    0.13854000    -0.17690000
opls_166-25    C    0.22044001    0.25569999    0.23659903    0.27690000
opls_700-26    C    0.27223001    0.27096995    0.90520035    -0.01800000
opls_143-27    C    0.18334003    0.28675994    0.63758112    0.11570000
opls_700-28    C    0.06247008    0.02528997    0.06679078    0.03830000
opls_700-29    C    0.03122994    0.02535997    0.28068079    0.02360000
opls_145-30    C    0.01520992    0.04994009    0.39593030    -0.09240000
opls_700-31    C    0.08180994    0.05064994    0.96143947    0.08180000
opls_145-32    C    0.07246986    0.07319007    0.79674968    -0.07730000
opls_145-33    C    0.09125995    0.09634000    0.69108096    -0.13490000
opls_145-34    C    0.12052005    0.09705006    0.73681908    0.23100000
opls_145-35    C    0.13012984    0.07443992    0.89472070    -0.13470000
opls_145-36    C    0.11106994    0.05153992    0.00703089    -0.07710000
opls_142-37    C    0.13701004    0.14226002    0.46542035    0.01640000
opls_700-38    C    0.16058998    0.16411996    0.36956980    0.06940000
opls_145-39    C    0.18980009    0.16021991    0.40783960    -0.07710000
opls_145-40    C    0.15376005    0.18936999    0.23747923    -0.07510000
opls_145-41    C    0.78825987    0.18121992    0.68435947    -0.07710000
opls_700-42    C    0.79530006    0.20662003    0.81133958    0.07450000
opls_145-43    C    0.82441986    0.21045008    0.85094034    -0.07510000
opls_145-44    C    0.74288997    0.77649000    0.13854000    -0.17690000
opls_166-45    C    0.72044001    0.75569999    0.23659903    0.27690000
opls_700-46    C    0.77223001    0.77096995    0.90520035    -0.01800000
opls_143-47    C    0.68334003    0.78675994    0.63758112    0.11570000
opls_700-48    C    0.43752992    0.52528997    0.93320922    0.03830000
opls_700-49    C    0.46877006    0.52535997    0.71931921    0.02360000
opls_145-50    C    0.48478986    0.54994009    0.60406970    -0.09240000
opls_700-51    C    0.41819006    0.55064994    0.03856053    0.08180000
opls_145-52    C    0.42752992    0.57319007    0.20325032    -0.07730000
opls_145-53    C    0.40874005    0.59634000    0.30891904    -0.13480000
opls_145-54    C    0.37947995    0.59705006    0.26318092    0.23100000
opls_145-55    C    0.36986994    0.57443992    0.10527930    -0.13470000
opls_145-56    C    0.38892999    0.55153992    0.99297178    -0.07710000
opls_142-57    C    0.36298996    0.64226002    0.53457965    0.01640000
opls_700-58    C    0.33941002    0.66411996    0.63043020    0.06940000
opls_145-59    C    0.31019991    0.66021991    0.59216040    -0.07710000
opls_145-60    C    0.34623995    0.68936999    0.76252077    -0.07510000
opls_145-61    C    0.71173991    0.68121992    0.31564053    -0.07710000
opls_700-62    C    0.70469994    0.70662003    0.18866042    0.07450000
opls_145-63    C    0.67557993    0.71045008    0.14905966    -0.07510000
opls_145-64    C    0.75711003    0.27649000    0.86146000    -0.17690000
opls_166-65    C    0.77955999    0.25569999    0.76340097    0.27690000
opls_700-66    C    0.72776999    0.27096995    0.09479965    -0.01800000
opls_143-67    C    0.81665997    0.28675994    0.36241888    0.11570000
opls_700-68    C    0.93752992    0.02528997    0.93320922    0.03830000
opls_700-69    C    0.96877006    0.02535997    0.71931921    0.02360000
opls_145-70    C    0.98478986    0.04994009    0.60406970    -0.09240000
opls_700-71    C    0.91819006    0.05064994    0.03856053    0.08180000
opls_145-72    C    0.92752992    0.07319007    0.20325032    -0.07730000
opls_145-73    C    0.90874005    0.09634000    0.30891904    -0.13490000
opls_145-74    C    0.87947995    0.09705006    0.26318092    0.23100000
opls_145-75    C    0.86986994    0.07443992    0.10527930    -0.13470000
opls_145-76    C    0.88892999    0.05153992    0.99297178    -0.07710000
opls_142-77    C    0.86298996    0.14226002    0.53457965    0.01640000
opls_700-78    C    0.83941002    0.16411996    0.63043020    0.06940000
opls_145-79    C    0.81019991    0.16021991    0.59216040    -0.07710000
opls_145-80    C    0.84623995    0.18936999    0.76252077    -0.07510000
opls_145-81    C    0.21173991    0.18121992    0.31564053    -0.07710000
opls_700-82    C    0.20469994    0.20662003    0.18866042    0.07450000
opls_145-83    C    0.17557993    0.21045008    0.14905966    -0.07510000
opls_145-84    C    0.25711003    0.77649000    0.86146000    -0.17680000
opls_166-85    C    0.27955999    0.75569999    0.76340097    0.27690000
opls_700-86    C    0.22776999    0.77096995    0.09479965    -0.01800000
opls_143-87    C    0.31665997    0.78675994    0.36241888    0.11570000
opls_700-88    C    0.43752992    0.47471003    0.93320922    0.03830000
opls_700-89    C    0.46877006    0.47464003    0.71931921    0.02360000
opls_145-90    C    0.48478986    0.45005991    0.60406970    -0.09240000
opls_700-91    C    0.41819006    0.44935006    0.03856053    0.08190000
opls_145-92    C    0.42752992    0.42680993    0.20325032    -0.07730000
opls_145-93    C    0.40874005    0.40366000    0.30891904    -0.13480000
opls_145-94    C    0.37947995    0.40294994    0.26318092    0.23100000
opls_145-95    C    0.36986994    0.42556008    0.10527930    -0.13460000
opls_145-96    C    0.38892999    0.44846008    0.99297178    -0.07710000
opls_142-97    C    0.36298996    0.35773998    0.53457965    0.01640000
opls_700-98    C    0.33941002    0.33588004    0.63043020    0.06940000
opls_145-99    C    0.31019991    0.33978009    0.59216040    -0.07710000
opls_145-100    C    0.34623995    0.31063001    0.76252077    -0.07510000
opls_145-101    C    0.71173991    0.31878008    0.31564053    -0.07730000
opls_700-102    C    0.70469994    0.29337997    0.18866042    0.07460000
opls_145-103    C    0.67557993    0.28954992    0.14905966    -0.07500000
opls_145-104    C    0.75711003    0.72351000    0.86146000    -0.17690000
opls_166-105    C    0.77955999    0.74430001    0.76340097    0.27690000
opls_700-106    C    0.72776999    0.72903005    0.09479965    -0.01800000
opls_143-107    C    0.81665997    0.71324006    0.36241888    0.11570000
opls_700-108    C    0.93752992    0.97471003    0.93320922    0.03830000
opls_700-109    C    0.96877006    0.97464003    0.71931921    0.02360000
opls_145-110    C    0.98478986    0.95005991    0.60406970    -0.09240000
opls_700-111    C    0.91819006    0.94935006    0.03856053    0.08180000
opls_145-112    C    0.92752992    0.92680993    0.20325032    -0.07730000
opls_145-113    C    0.90874005    0.90366000    0.30891904    -0.13490000
opls_145-114    C    0.87947995    0.90294994    0.26318092    0.23100000
opls_145-115    C    0.86986994    0.92556008    0.10527930    -0.13470000
opls_145-116    C    0.88892999    0.94846008    0.99297178    -0.07700000
opls_142-117    C    0.86298996    0.85773998    0.53457965    0.01640000
opls_700-118    C    0.83941002    0.83588004    0.63043020    0.06940000
opls_145-119    C    0.81019991    0.83978009    0.59216040    -0.07700000
opls_145-120    C    0.84623995    0.81063001    0.76252077    -0.07510000
opls_145-121    C    0.21173991    0.81878008    0.31564053    -0.07710000
opls_700-122    C    0.20469994    0.79337997    0.18866042    0.07450000
opls_145-123    C    0.17557993    0.78954992    0.14905966    -0.07510000
opls_145-124    C    0.25711003    0.22351000    0.86146000    -0.17680000
opls_166-125    C    0.27955999    0.24430001    0.76340097    0.27700000
opls_700-126    C    0.22776999    0.22903005    0.09479965    -0.01800000
opls_143-127    C    0.31665997    0.21324006    0.36241888    0.11570000
opls_700-128    C    0.56247008    0.47471003    0.06679078    0.03830000
opls_700-129    C    0.53122994    0.47464003    0.28068079    0.02360000
opls_145-130    C    0.51520992    0.45005991    0.39593030    -0.09220000
opls_700-131    C    0.58180994    0.44935006    0.96143947    0.08180000
opls_145-132    C    0.57246986    0.42680993    0.79674968    -0.07730000
opls_145-133    C    0.59125995    0.40366000    0.69108096    -0.13490000
opls_145-134    C    0.62052005    0.40294994    0.73681908    0.23100000
opls_145-135    C    0.63012984    0.42556008    0.89472070    -0.13470000
opls_145-136    C    0.61106994    0.44846008    0.00703089    -0.07710000
opls_142-137    C    0.63701004    0.35773998    0.46542035    0.01640000
opls_700-138    C    0.66058998    0.33588004    0.36956980    0.06950000
opls_145-139    C    0.68980009    0.33978009    0.40783960    -0.07710000
opls_145-140    C    0.65376005    0.31063001    0.23747923    -0.07510000
opls_145-141    C    0.28825987    0.31878008    0.68435947    -0.07700000
opls_700-142    C    0.29530006    0.29337997    0.81133958    0.07470000
opls_145-143    C    0.32441986    0.28954992    0.85094034    -0.07510000
opls_145-144    C    0.24288997    0.72351000    0.13854000    -0.17690000
opls_166-145    C    0.22044001    0.74430001    0.23659903    0.27690000
opls_700-146    C    0.27223001    0.72903005    0.90520035    -0.01790000
opls_143-147    C    0.18334003    0.71324006    0.63758112    0.11570000
opls_700-148    C    0.06247008    0.97471003    0.06679078    0.03840000
opls_700-149    C    0.03122994    0.97464003    0.28068079    0.02360000
opls_145-150    C    0.01520992    0.95005991    0.39593030    -0.09240000
opls_700-151    C    0.08180994    0.94935006    0.96143947    0.08180000
opls_145-152    C    0.07246986    0.92680993    0.79674968    -0.07730000
opls_145-153    C    0.09125995    0.90366000    0.69108096    -0.13490000
opls_145-154    C    0.12052005    0.90294994    0.73681908    0.23100000
opls_145-155    C    0.13012984    0.92556008    0.89472070    -0.13470000
opls_145-156    C    0.11106994    0.94846008    0.00703089    -0.07710000
opls_142-157    C    0.13701004    0.85773998    0.46542035    0.01640000
opls_700-158    C    0.16058998    0.83588004    0.36956980    0.06940000
opls_145-159    C    0.18980009    0.83978009    0.40783960    -0.07710000
opls_145-160    C    0.15376005    0.81063001    0.23747923    -0.07510000
opls_145-161    C    0.78825987    0.81878008    0.68435947    -0.07710000
opls_700-162    C    0.79530006    0.79337997    0.81133958    0.07450000
opls_145-163    C    0.82441986    0.78954992    0.85094034    -0.07510000
opls_145-164    C    0.74288997    0.22351000    0.13854000    -0.17690000
opls_166-165    C    0.72044001    0.24430001    0.23659903    0.27700000
opls_700-166    C    0.77223001    0.22903005    0.90520035    -0.01800000
opls_143-167    C    0.68334003    0.21324006    0.63758112    0.11570000
opls_145-168    C    0.42300989    0.50000000    0.04132115    -0.08180000
opls_700-169    C    0.48439002    0.50000000    0.61135931    0.00190000
opls_145-170    C    0.92300989    0.00000000    0.04132115    -0.08180000
opls_700-171    C    0.98439002    0.00000000    0.61135931    0.00190000
opls_145-172    C    0.57698983    0.50000000    0.95868152    -0.08180000
opls_700-173    C    0.51560998    0.50000000    0.38864069    0.00190000
opls_145-174    C    0.07698983    0.00000000    0.95868152    -0.08180000
opls_700-175    C    0.01560998    0.00000000    0.38864069    0.00190000
opls_180-176    O    0.19086984    0.26024997    0.47683087    -0.20100000
opls_180-177    O    0.69086984    0.76024997    0.47683087    -0.20100000
opls_180-178    O    0.80912994    0.26024997    0.52316913    -0.20100000
opls_180-179    O    0.30912994    0.76024997    0.52316913    -0.20100000
opls_180-180    O    0.80912994    0.73975003    0.52316913    -0.20080000
opls_180-181    O    0.30912994    0.23975003    0.52316913    -0.20090000
opls_180-182    O    0.19086984    0.73975003    0.47683087    -0.20090000
opls_180-183    O    0.69086984    0.23975003    0.47683087    -0.20090000
opls_146-184    H    0.52718996    0.57059999    0.31868120    0.04960000
opls_146-185    H    0.54924984    0.57284997    0.74702134    0.04960000
opls_146-186    H    0.58288991    0.61476001    0.56718154    0.04960000
opls_146-187    H    0.65375990    0.57446998    0.93360130    0.04960000
opls_146-188    H    0.61950994    0.53347998    0.13668892    0.04960000
opls_144-189    H    0.61480998    0.64526000    0.39667980    0.02930000
opls_146-190    H    0.69577003    0.63985997    0.51455122    0.04960000
opls_146-191    H    0.63029990    0.69283009    0.20151127    0.04960000
opls_146-192    H    0.26450988    0.67776003    0.65656132    0.04960000
opls_146-193    H    0.33045988    0.73086005    0.95585956    0.04960000
opls_146-194    H    0.23737990    0.29822003    0.24891109    0.04960000
opls_185-195    H    0.20221985    0.30090007    0.66815055    0.02500000
opls_185-196    H    0.15846006    0.29376001    0.73516005    0.02500000
opls_146-197    H    0.02718996    0.07059999    0.31868120    0.04960000
opls_146-198    H    0.04924984    0.07284997    0.74702134    0.04960000
opls_146-199    H    0.08288991    0.11476001    0.56718154    0.04970000
opls_146-200    H    0.15375990    0.07446998    0.93360130    0.04960000
opls_146-201    H    0.11950994    0.03347998    0.13668892    0.04960000
opls_144-202    H    0.11480998    0.14526000    0.39667980    0.02930000
opls_146-203    H    0.19577003    0.13985997    0.51455122    0.04960000
opls_146-204    H    0.13029990    0.19283009    0.20151127    0.04960000
opls_146-205    H    0.76450988    0.17776003    0.65656132    0.04960000
opls_146-206    H    0.83045988    0.23086005    0.95585956    0.04960000
opls_146-207    H    0.73737990    0.79822003    0.24891109    0.04960000
opls_185-208    H    0.70221985    0.80090007    0.66815055    0.02500000
opls_185-209    H    0.65846006    0.79376001    0.73516005    0.02500000
opls_146-210    H    0.47217000    0.57026010    0.68574111    0.04960000
opls_146-211    H    0.45074987    0.57284997    0.25298133    0.04960000
opls_146-212    H    0.41711002    0.61476001    0.43282113    0.04960000
opls_146-213    H    0.34624003    0.57446998    0.06640136    0.04960000
opls_146-214    H    0.38048984    0.53347998    0.86331108    0.04960000
opls_144-215    H    0.38519002    0.64526000    0.60332020    0.02930000
opls_146-216    H    0.30442003    0.63978997    0.48524073    0.04960000
opls_146-217    H    0.36976981    0.69262998    0.79757120    0.04960000
opls_146-218    H    0.73549005    0.67776003    0.34344135    0.04960000
opls_146-219    H    0.66975995    0.73093005    0.04391905    0.04970000
opls_146-220    H    0.76261981    0.29822003    0.75109157    0.04960000
opls_185-221    H    0.83892998    0.28982003    0.13743042    0.02500000
opls_185-222    H    0.80039991    0.30482997    0.45925098    0.02500000
opls_146-223    H    0.97280998    0.07059999    0.68132147    0.04960000
opls_146-224    H    0.95074987    0.07284997    0.25298133    0.04960000
opls_146-225    H    0.91711002    0.11476001    0.43282113    0.04960000
opls_146-226    H    0.84624003    0.07446998    0.06640136    0.04960000
opls_146-227    H    0.88048984    0.03347998    0.86331108    0.04960000
opls_144-228    H    0.88519002    0.14526000    0.60332020    0.02930000
opls_146-229    H    0.80442003    0.13978997    0.48524073    0.04960000
opls_146-230    H    0.86976981    0.19262998    0.79757120    0.04960000
opls_146-231    H    0.23549005    0.17776003    0.34344135    0.04960000
opls_146-232    H    0.16975995    0.23093005    0.04391905    0.04970000
opls_146-233    H    0.26261981    0.79822003    0.75109157    0.04960000
opls_185-234    H    0.30039991    0.80482997    0.45925098    0.02500000
opls_185-235    H    0.33892998    0.78982003    0.13743042    0.02500000
opls_146-236    H    0.47280998    0.42940001    0.68132147    0.04960000
opls_146-237    H    0.45074987    0.42715003    0.25298133    0.04960000
opls_146-238    H    0.41711002    0.38523999    0.43282113    0.04960000
opls_146-239    H    0.34624003    0.42553002    0.06640136    0.04960000
opls_146-240    H    0.38048984    0.46652002    0.86331108    0.04960000
opls_144-241    H    0.38519002    0.35474000    0.60332020    0.02930000
opls_146-242    H    0.30422990    0.36014003    0.48545145    0.04960000
opls_146-243    H    0.36969982    0.30716991    0.79849140    0.04960000
opls_146-244    H    0.73543000    0.32241002    0.34423086    0.04960000
opls_146-245    H    0.66953990    0.26913995    0.04414044    0.04960000
opls_146-246    H    0.76261981    0.70177997    0.75109157    0.04960000
opls_185-247    H    0.79777993    0.69909993    0.33184945    0.02500000
opls_185-248    H    0.84153994    0.70623999    0.26483995    0.02500000
opls_146-249    H    0.97280998    0.92940001    0.68132147    0.04960000
opls_146-250    H    0.95074987    0.92715003    0.25298133    0.04960000
opls_146-251    H    0.91711002    0.88523999    0.43282113    0.04970000
opls_146-252    H    0.84624003    0.92553002    0.06640136    0.04960000
opls_146-253    H    0.88048984    0.96652002    0.86331108    0.04960000
opls_144-254    H    0.88519002    0.85474000    0.60332020    0.02930000
opls_146-255    H    0.80422990    0.86014003    0.48545145    0.04960000
opls_146-256    H    0.86969982    0.80716991    0.79849140    0.04960000
opls_146-257    H    0.23549005    0.82223997    0.34344135    0.04960000
opls_146-258    H    0.16953990    0.76913995    0.04414044    0.04960000
opls_146-259    H    0.26261981    0.20177997    0.75109157    0.04960000
opls_185-260    H    0.34153994    0.20623999    0.26483995    0.02500000
opls_185-261    H    0.29777993    0.19909993    0.33184945    0.02510000
opls_146-262    H    0.52783000    0.42973990    0.31425889    0.04960000
opls_146-263    H    0.54924984    0.42715003    0.74702134    0.04960000
opls_146-264    H    0.58288991    0.38523999    0.56718154    0.04960000
opls_146-265    H    0.65375990    0.42553002    0.93360130    0.04960000
opls_146-266    H    0.61950994    0.46652002    0.13668892    0.04960000
opls_144-267    H    0.61480998    0.35474000    0.39667980    0.02930000
opls_146-268    H    0.69557997    0.36021003    0.51475927    0.04960000
opls_146-269    H    0.63022997    0.30737002    0.20242880    0.04960000
opls_146-270    H    0.26450988    0.32223997    0.65656132    0.04960000
opls_146-271    H    0.33023983    0.26906995    0.95608095    0.04970000
opls_146-272    H    0.23737990    0.70177997    0.24891109    0.04960000
opls_185-273    H    0.16107002    0.71017997    0.86256958    0.02500000
opls_185-274    H    0.19960009    0.69517003    0.54074902    0.02500000
opls_146-275    H    0.02718996    0.92940001    0.31868120    0.04960000
opls_146-276    H    0.04924984    0.92715003    0.74702134    0.04960000
opls_146-277    H    0.08288991    0.88523999    0.56718154    0.04960000
opls_146-278    H    0.15375990    0.92553002    0.93360130    0.04960000
opls_146-279    H    0.11950994    0.96652002    0.13668892    0.04960000
opls_144-280    H    0.11480998    0.85474000    0.39667980    0.02940000
opls_146-281    H    0.19557997    0.86021003    0.51475927    0.04960000
opls_146-282    H    0.13022997    0.80737002    0.20242880    0.04960000
opls_146-283    H    0.76450988    0.82223997    0.65656132    0.04960000
opls_146-284    H    0.83023983    0.76906995    0.95608095    0.04960000
opls_146-285    H    0.73737990    0.20177997    0.24891109    0.04960000
opls_185-286    H    0.66107002    0.21017997    0.86256958    0.02500000
opls_185-287    H    0.69960009    0.19517003    0.54074902    0.02500000
opls_146-288    H    0.39840997    0.49947008    0.22451903    0.04960000
opls_146-289    H    0.89840997    0.99947008    0.22451903    0.04960000
opls_146-290    H    0.60159003    0.49947008    0.77548097    0.04960000
opls_146-291    H    0.10159003    0.99947008    0.77548097    0.04960000
