#======================================================================
# Crystal Data Generated By AuToFF
#----------------------------------------------------------------------

data_AuToFF_phase_1

_cell_length_a                         48.1523
_cell_length_b                         34.1294
_cell_length_c                         3.8595
_cell_angle_alpha                      90.00
_cell_angle_beta                       90.00
_cell_angle_gamma                      90.00
_symmetry_space_group_name_H-M_alt     'P 1'
_symmetry_space_group_IT_number        1

loop_
_space_group_symop_operation_xyz
   'x, y, z'

loop_
   _atom_site_label
   _atom_site_type_symbol
   _atom_site_fract_x
   _atom_site_fract_y
   _atom_site_fract_z
   _atom_site_charge
opls_700-0    C    0.55224008    0.60595000    0.47228916    0.06410000
opls_145-1    C    0.57821994    0.59428000    0.62814095    -0.09080000
opls_145-2    C    0.60271991    0.61600995    0.61247053    -0.16590000
opls_700-3    C    0.60522010    0.65300005    0.44710973    0.05730000
opls_145-4    C    0.57950004    0.66483999    0.29940925    -0.11280000
opls_145-5    C    0.55495999    0.64350003    0.30856069    -0.09290000
opls_142-6    C    0.62987998    0.67983000    0.41443969    0.02480000
opls_145-7    C    0.68232006    0.69482997    0.49227102    0.18700000
opls_145-8    C    0.70864009    0.67619999    0.49916051    -0.19870000
opls_145-9    C    0.73398010    0.69576992    0.49208965    -0.09290000
opls_700-10    C    0.73657998    0.73756995    0.48452908    0.06460000
opls_145-11    C    0.70990005    0.75633003    0.47911906    -0.11150000
opls_145-12    C    0.68468007    0.73624998    0.48053116    -0.17370000
opls_700-13    C    0.97368994    0.08406008    0.47676901    0.03720000
opls_700-14    C    0.97524002    0.04211003    0.45559010    0.02610000
opls_145-15    C    0.94949006    0.01878996    0.38153129    -0.11350000
opls_700-16    C    0.05227995    0.10702005    0.52886125    0.06460000
opls_145-17    C    0.07813002    0.09614995    0.36500065    -0.09070000
opls_145-18    C    0.10258991    0.11793000    0.38351082    -0.13870000
opls_700-19    C    0.10517005    0.15424004    0.55972017    0.05730000
opls_145-20    C    0.07951001    0.16548987    0.71318046    -0.16950000
opls_145-21    C    0.05498990    0.14412999    0.70055966    -0.13250000
opls_142-22    C    0.12991010    0.18077991    0.60045084    0.02480000
opls_145-23    C    0.18198009    0.19697006    0.50018914    0.18700000
opls_145-24    C    0.20741003    0.18081009    0.38202099    -0.19870000
opls_145-25    C    0.23282003    0.20018987    0.38898044    -0.13050000
opls_700-26    C    0.23637002    0.23941001    0.51327115    0.06460000
opls_145-27    C    0.21057000    0.25572996    0.63143931    -0.11150000
opls_145-28    C    0.18530994    0.23575012    0.62620029    -0.17370000
opls_700-29    C    0.47378007    0.58343012    0.52151056    0.03650000
opls_700-30    C    0.47504003    0.54119000    0.54765125    0.02040000
opls_145-31    C    0.45147999    0.51909995    0.64003109    -0.10900000
opls_700-32    C    0.44775992    0.39211999    0.52770048    0.06440000
opls_145-33    C    0.42178006    0.40378999    0.37186941    -0.09070000
opls_145-34    C    0.39728009    0.38205008    0.38752947    -0.16590000
opls_700-35    C    0.39477990    0.34506994    0.55284104    0.05730000
opls_145-36    C    0.42049996    0.33322004    0.70052079    -0.11300000
opls_145-37    C    0.44504001    0.35456000    0.69140044    -0.13250000
opls_142-38    C    0.37012002    0.31823003    0.58545926    0.02480000
opls_145-39    C    0.31767994    0.30324002    0.50777044    0.18700000
opls_145-40    C    0.29135991    0.32187000    0.50160902    -0.19870000
opls_145-41    C    0.26601990    0.30229011    0.50866952    -0.13060000
opls_700-42    C    0.26342002    0.26049008    0.51548128    0.06460000
opls_145-43    C    0.29009995    0.24173997    0.52017101    -0.11150000
opls_145-44    C    0.31531993    0.26181005    0.51876927    -0.17280000
opls_700-45    C    0.02631006    0.91400992    0.52323099    0.03720000
opls_700-46    C    0.02475998    0.95595000    0.54440990    0.02640000
opls_145-47    C    0.05050994    0.97927007    0.61846871    -0.11340000
opls_700-48    C    0.94772005    0.89103998    0.47114911    0.06460000
opls_145-49    C    0.92186998    0.90192005    0.63499935    -0.09080000
opls_145-50    C    0.89741009    0.88014000    0.61648918    -0.13870000
opls_700-51    C    0.89482995    0.84381999    0.44030056    0.05750000
opls_145-52    C    0.92048999    0.83258012    0.28684026    -0.15570000
opls_145-53    C    0.94501010    0.85394000    0.29946107    -0.13250000
opls_142-54    C    0.87008990    0.81728012    0.39958026    0.02480000
opls_145-55    C    0.81801991    0.80109993    0.49979013    0.18700000
opls_145-56    C    0.79258000    0.81725990    0.61768105    -0.17920000
opls_145-57    C    0.76717000    0.79789009    0.61070087    -0.13060000
opls_700-58    C    0.76362998    0.75865002    0.48672108    0.06460000
opls_145-59    C    0.78943000    0.74232011    0.36885089    -0.11140000
opls_145-60    C    0.81469006    0.76229995    0.37407954    -0.17370000
opls_700-61    C    0.52621993    0.41463987    0.47848944    0.03650000
opls_700-62    C    0.52495997    0.45687999    0.45234098    0.02040000
opls_145-63    C    0.54852001    0.47897004    0.35996891    -0.10900000
opls_700-64    C    0.44775992    0.60595000    0.52771084    0.06410000
opls_145-65    C    0.42178006    0.59428000    0.37185905    -0.09080000
opls_145-66    C    0.39728009    0.61600995    0.38752947    -0.16590000
opls_700-67    C    0.39477990    0.65300005    0.55289027    0.05730000
opls_145-68    C    0.42049996    0.66483999    0.70059075    -0.11300000
opls_145-69    C    0.44504001    0.64350003    0.69143931    -0.09290000
opls_142-70    C    0.37012002    0.67983000    0.58556031    0.02480000
opls_145-71    C    0.31767994    0.69482997    0.50772898    0.18710000
opls_145-72    C    0.29135991    0.67619999    0.50083949    -0.19870000
opls_145-73    C    0.26601990    0.69576992    0.50791035    -0.09290000
opls_700-74    C    0.26342002    0.73756995    0.51547092    0.06460000
opls_145-75    C    0.29009995    0.75633003    0.52088094    -0.11150000
opls_145-76    C    0.31531993    0.73624998    0.51946884    -0.17380000
opls_700-77    C    0.02631006    0.08406008    0.52323099    0.03720000
opls_700-78    C    0.02475998    0.04211003    0.54440990    0.02610000
opls_145-79    C    0.05050994    0.01878996    0.61846871    -0.11350000
opls_700-80    C    0.94772005    0.10702005    0.47113875    0.06460000
opls_145-81    C    0.92186998    0.09614995    0.63499935    -0.09080000
opls_145-82    C    0.89741009    0.11793000    0.61648918    -0.13860000
opls_700-83    C    0.89482995    0.15424004    0.44027983    0.05740000
opls_145-84    C    0.92048999    0.16548987    0.28681954    -0.16960000
opls_145-85    C    0.94501010    0.14412999    0.29944034    -0.13250000
opls_142-86    C    0.87008990    0.18077991    0.39954916    0.02480000
opls_145-87    C    0.81801991    0.19697006    0.49981086    0.18710000
opls_145-88    C    0.79258997    0.18081009    0.61797901    -0.19870000
opls_145-89    C    0.76717997    0.20018987    0.61101956    -0.13060000
opls_700-90    C    0.76362998    0.23941001    0.48672885    0.06460000
opls_145-91    C    0.78943000    0.25572996    0.36856069    -0.11150000
opls_145-92    C    0.81469006    0.23575012    0.37379971    -0.17370000
opls_700-93    C    0.52621993    0.58343012    0.47848944    0.03650000
opls_700-94    C    0.52495997    0.54119000    0.45234875    0.02040000
opls_145-95    C    0.54852001    0.51909995    0.35996891    -0.10900000
opls_700-96    C    0.55224008    0.39211999    0.47229952    0.06450000
opls_145-97    C    0.57821994    0.40378999    0.62813059    -0.09080000
opls_145-98    C    0.60271991    0.38205008    0.61247053    -0.16590000
opls_700-99    C    0.60522010    0.34506994    0.44715896    0.05760000
opls_145-100    C    0.57950004    0.33322004    0.29947921    -0.11300000
opls_145-101    C    0.55495999    0.35456000    0.30859956    -0.13250000
opls_142-102    C    0.62987998    0.31823003    0.41454074    0.02480000
opls_145-103    C    0.68232006    0.30324002    0.49222956    0.18710000
opls_145-104    C    0.70864009    0.32187000    0.49839098    -0.19860000
opls_145-105    C    0.73398010    0.30229011    0.49133048    -0.13060000
opls_700-106    C    0.73657998    0.26049008    0.48451872    0.06460000
opls_145-107    C    0.70990005    0.24173997    0.47982899    -0.11150000
opls_145-108    C    0.68468007    0.26181005    0.48123073    -0.17280000
opls_700-109    C    0.97368994    0.91400992    0.47676901    0.03720000
opls_700-110    C    0.97524002    0.95595000    0.45559010    0.02640000
opls_145-111    C    0.94949006    0.97927007    0.38153129    -0.11350000
opls_700-112    C    0.05227995    0.89103998    0.52885089    0.06460000
opls_145-113    C    0.07813002    0.90192005    0.36500065    -0.09080000
opls_145-114    C    0.10258991    0.88014000    0.38351082    -0.13870000
opls_700-115    C    0.10517005    0.84381999    0.55969944    0.05750000
opls_145-116    C    0.07951001    0.83258012    0.71315974    -0.15570000
opls_145-117    C    0.05498990    0.85394000    0.70053893    -0.13250000
opls_142-118    C    0.12991010    0.81728012    0.60041974    0.02490000
opls_145-119    C    0.18198009    0.80109993    0.50020987    0.18710000
opls_145-120    C    0.20742000    0.81725990    0.38231895    -0.17920000
opls_145-121    C    0.23283000    0.79789009    0.38929913    -0.13060000
opls_700-122    C    0.23637002    0.75865002    0.51327892    0.06470000
opls_145-123    C    0.21057000    0.74232011    0.63114911    -0.11140000
opls_145-124    C    0.18530994    0.76229995    0.62592046    -0.17370000
opls_700-125    C    0.47378007    0.41463987    0.52151056    0.03650000
opls_700-126    C    0.47504003    0.45687999    0.54765902    0.02040000
opls_145-127    C    0.45147999    0.47897004    0.64003109    -0.10900000
opls_700-128    C    0.00000000    0.02040001    0.50000000    -0.00260000
opls_700-129    C    0.00000000    0.97766002    0.50000000    -0.00260000
opls_145-130    C    0.00000000    0.10296987    0.50000000    -0.07600000
opls_145-131    C    0.00000000    0.89508986    0.50000000    -0.07610000
opls_700-132    C    0.50000000    0.51986997    0.50000000    0.02760000
opls_700-133    C    0.50000000    0.47820003    0.50000000    0.02760000
opls_145-134    C    0.50000000    0.60223004    0.50000000    -0.09920000
opls_145-135    C    0.50000000    0.39583995    0.50000000    -0.09920000
opls_750-136    N    0.65613003    0.67226995    0.50363000    -0.22160000
opls_750-137    N    0.15568997    0.17467989    0.48494105    -0.22160000
opls_750-138    N    0.34386997    0.32580004    0.49642959    -0.22150000
opls_750-139    N    0.84431003    0.82339010    0.51503044    -0.22130000
opls_750-140    N    0.34386997    0.67226995    0.49637000    -0.22160000
opls_750-141    N    0.84431003    0.17467989    0.51505895    -0.22160000
opls_750-142    N    0.65613003    0.32580004    0.50357041    -0.22140000
opls_750-143    N    0.15568997    0.82339010    0.48496956    -0.22160000
opls_146-144    H    0.57883009    0.56648989    0.77299909    0.10460000
opls_146-145    H    0.62102994    0.60368011    0.74394092    0.07800000
opls_146-146    H    0.57858005    0.69296003    0.15982122    0.10570000
opls_146-147    H    0.53677000    0.65584013    0.17441119    0.07990000
opls_144-148    H    0.62447007    0.70822985    0.29760073    0.06720000
opls_146-149    H    0.70920994    0.64397997    0.50980956    0.06910000
opls_146-150    H    0.75300993    0.67790995    0.50022024    0.07660000
opls_146-151    H    0.70913996    0.78856997    0.47083042    0.10470000
opls_146-152    H    0.66553996    0.75384009    0.47607980    0.11990000
opls_146-153    H    0.93132997    0.03567013    0.30795958    0.11440000
opls_146-154    H    0.07870008    0.06890013    0.21229952    0.10470000
opls_146-155    H    0.12081998    0.10610002    0.24686099    0.06910000
opls_146-156    H    0.07865003    0.19305994    0.86097940    0.07830000
opls_146-157    H    0.03687010    0.15588994    0.84032906    0.10560000
opls_144-158    H    0.12497991    0.20758994    0.74637129    0.06700000
opls_146-159    H    0.20717993    0.15085996    0.27614976    0.07810000
opls_146-160    H    0.25103993    0.18455994    0.28551885    0.13900000
opls_146-161    H    0.21063999    0.28568009    0.73789092    0.13900000
opls_146-162    H    0.16697001    0.25125991    0.72645939    0.11760000
opls_146-163    H    0.43204997    0.53387988    0.71119057    0.08880000
opls_146-164    H    0.37897006    0.39438988    0.25606944    0.07660000
opls_146-165    H    0.42141995    0.30510000    0.84008032    0.10460000
opls_146-166    H    0.46323997    0.34221990    0.82552921    0.10560000
opls_144-167    H    0.37552993    0.28981992    0.70212981    0.06700000
opls_146-168    H    0.29079006    0.35409002    0.49157922    0.07950000
opls_146-169    H    0.24699007    0.32016004    0.50115041    0.07830000
opls_146-170    H    0.29087001    0.20949006    0.52781967    0.13900000
opls_146-171    H    0.33447000    0.24421994    0.52259878    0.07350000
opls_146-172    H    0.87918002    0.89196001    0.75313901    0.07950000
opls_146-173    H    0.92134997    0.80500009    0.13905946    0.10470000
opls_146-174    H    0.96312990    0.84217009    0.15967871    0.13920000
opls_144-175    H    0.87502009    0.79047009    0.25372976    0.06590000
opls_146-176    H    0.79280990    0.84722995    0.72330095    0.07980000
opls_146-177    H    0.74895010    0.81352998    0.71391113    0.10570000
opls_146-178    H    0.78936001    0.71236002    0.26266097    0.13510000
opls_146-179    H    0.83303996    0.74677990    0.27405104    0.09490000
opls_146-180    H    0.57883009    0.43157014    0.77297059    0.07660000
opls_146-181    H    0.93132997    0.96238990    0.30795958    0.11440000
opls_146-182    H    0.92129992    0.92916987    0.78769012    0.10460000
opls_146-183    H    0.56795003    0.46419011    0.28880943    0.08880000
opls_146-184    H    0.42116991    0.56648989    0.22700091    0.10460000
opls_146-185    H    0.37897006    0.60368011    0.25605908    0.07800000
opls_146-186    H    0.42141995    0.69296003    0.84017878    0.10560000
opls_146-187    H    0.46323000    0.65584013    0.82558881    0.07990000
opls_144-188    H    0.37552993    0.70822985    0.70239927    0.06720000
opls_146-189    H    0.29079006    0.64397997    0.49019044    0.06910000
opls_146-190    H    0.24699007    0.67790995    0.49977976    0.07660000
opls_146-191    H    0.29086004    0.78856997    0.52916958    0.10460000
opls_146-192    H    0.33446004    0.75384009    0.52392020    0.11990000
opls_146-193    H    0.06867003    0.03567013    0.69204042    0.11440000
opls_146-194    H    0.92129992    0.06890013    0.78770048    0.10460000
opls_146-195    H    0.87918002    0.10610002    0.75313901    0.06910000
opls_146-196    H    0.92134997    0.19305994    0.13902060    0.07830000
opls_146-197    H    0.96312990    0.15588994    0.15967094    0.10570000
opls_144-198    H    0.87502009    0.20758994    0.25362871    0.06700000
opls_146-199    H    0.79282007    0.15085996    0.72385024    0.07800000
opls_146-200    H    0.74896007    0.18455994    0.71448115    0.13900000
opls_146-201    H    0.78936001    0.28568009    0.26210908    0.13900000
opls_146-202    H    0.83302999    0.25125991    0.27354061    0.11770000
opls_146-203    H    0.56795003    0.53387988    0.28880943    0.08880000
opls_146-204    H    0.62102994    0.39438988    0.74393056    0.07660000
opls_146-205    H    0.57858005    0.30510000    0.15991968    0.10460000
opls_146-206    H    0.53676003    0.34221990    0.17447079    0.10560000
opls_144-207    H    0.62447007    0.28981992    0.29787019    0.06700000
opls_146-208    H    0.70920994    0.35409002    0.50842078    0.07950000
opls_146-209    H    0.75300993    0.32016004    0.49884959    0.07830000
opls_146-210    H    0.70912999    0.20949006    0.47218033    0.13910000
opls_146-211    H    0.66553000    0.24421994    0.47740122    0.07350000
opls_146-212    H    0.12081998    0.89196001    0.24686099    0.07950000
opls_146-213    H    0.07865003    0.80500009    0.86094054    0.10460000
opls_146-214    H    0.03687010    0.84217009    0.84032129    0.13900000
opls_144-215    H    0.12497991    0.79047009    0.74627024    0.06610000
opls_146-216    H    0.20719010    0.84722995    0.27669905    0.07980000
opls_146-217    H    0.25104990    0.81352998    0.28608887    0.10560000
opls_146-218    H    0.21063999    0.71236002    0.73733903    0.13510000
opls_146-219    H    0.16696004    0.74677990    0.72594896    0.09480000
opls_146-220    H    0.42116991    0.43157014    0.22702941    0.07670000
opls_146-221    H    0.06867003    0.96238990    0.69204042    0.11440000
opls_146-222    H    0.07870008    0.92916987    0.21230988    0.10460000
opls_146-223    H    0.43204997    0.46419011    0.71119057    0.08890000
opls_146-224    H    0.00000000    0.13524996    0.50000000    0.13900000
opls_146-225    H    0.00000000    0.86281007    0.50000000    0.13900000
opls_146-226    H    0.50000000    0.63449987    0.50000000    0.10140000
opls_146-227    H    0.50000000    0.36357012    0.50000000    0.10140000
