#======================================================================
# Crystal Data Generated By AuToFF
#----------------------------------------------------------------------

data_AuToFF_phase_1

_cell_length_a                         20.9100
_cell_length_b                         20.9100
_cell_length_c                         3.3400
_cell_angle_alpha                      90.00
_cell_angle_beta                       90.00
_cell_angle_gamma                      120.00
_symmetry_space_group_name_H-M_alt     'P 1'
_symmetry_space_group_IT_number        1

loop_
_space_group_symop_operation_xyz
   'x, y, z'

loop_
   _atom_site_label
   _atom_site_type_symbol
   _atom_site_fract_x
   _atom_site_fract_y
   _atom_site_fract_z
   _atom_site_charge
opls_280-0    C    0.68869002    0.40808975    0.00000000    0.21190000
opls_727-1    C    0.46651986    0.42896990    0.00000000    0.15930000
opls_145-2    C    0.61620999    0.35347976    0.00000000    -0.08800000
opls_142-3    C    0.56340013    0.36983995    0.00000000    0.11150000
opls_145-4    C    0.54000990    0.46612022    0.00000000    0.00410000
opls_727-5    C    0.42977984    0.46421008    0.00000000    0.15750000
opls_280-6    C    0.59191022    0.28059998    0.00000000    0.21190000
opls_727-7    C    0.57102997    0.03755014    0.00000000    0.15930000
opls_145-8    C    0.64651995    0.26273001    0.00000000    -0.08800000
opls_142-9    C    0.63016024    0.19356007    0.00000000    0.11150000
opls_145-10    C    0.53387986    0.07388979    0.00000000    0.00410000
opls_727-11    C    0.53578975    0.96556993    0.00000000    0.15750000
opls_280-12    C    0.71940023    0.31131027    0.00000000    0.21190000
opls_727-13    C    0.96245017    0.53347997    0.00000000    0.15930000
opls_145-14    C    0.73727006    0.38379023    0.00000000    -0.08800000
opls_142-15    C    0.80644011    0.43659998    0.00000000    0.11150000
opls_145-16    C    0.92610977    0.45998998    0.00000000    0.00410000
opls_727-17    C    0.03442994    0.57021999    0.00000000    0.15750000
opls_280-18    C    0.31130998    0.59191025    0.00000000    0.21190000
opls_727-19    C    0.53348014    0.57103010    0.00000000    0.15930000
opls_145-20    C    0.38379001    0.64652024    0.00000000    -0.08800000
opls_142-21    C    0.43659987    0.63016005    0.00000000    0.11150000
opls_145-22    C    0.45999010    0.53387978    0.00000000    0.00410000
opls_727-23    C    0.57022016    0.53578992    0.00000000    0.15750000
opls_280-24    C    0.40808978    0.71940002    0.00000000    0.21190000
opls_727-25    C    0.42897003    0.96244986    0.00000000    0.15930000
opls_145-26    C    0.35348005    0.73726999    0.00000000    -0.08800000
opls_142-27    C    0.36983976    0.80643993    0.00000000    0.11150000
opls_145-28    C    0.46612014    0.92611021    0.00000000    0.00410000
opls_727-29    C    0.46421025    0.03443007    0.00000000    0.15750000
opls_280-30    C    0.28060004    0.68869028    0.00000000    0.21190000
opls_727-31    C    0.03754983    0.46652003    0.00000000    0.15930000
opls_145-32    C    0.26272994    0.61620977    0.00000000    -0.08800000
opls_142-33    C    0.19355989    0.56340002    0.00000000    0.11150000
opls_145-34    C    0.07389023    0.54001002    0.00000000    0.00410000
opls_727-35    C    0.96557006    0.42978001    0.00000000    0.15750000
MOF2_F_-36    F    0.42998005    0.35800026    0.00000000    -0.14670000
MOF2_F_-37    F    0.35919988    0.42766996    0.00000000    -0.18280000
MOF2_F_-38    F    0.64200014    0.07198020    0.00000000    -0.14670000
MOF2_F_-39    F    0.57232994    0.93153028    0.00000000    -0.18270000
MOF2_F_-40    F    0.92802009    0.57002008    0.00000000    -0.14670000
MOF2_F_-41    F    0.06846998    0.64080031    0.00000000    -0.18280000
MOF2_F_-42    F    0.57002023    0.64200029    0.00000000    -0.14660000
MOF2_F_-43    F    0.64080012    0.57233004    0.00000000    -0.18270000
MOF2_F_-44    F    0.35799986    0.92801980    0.00000000    -0.14670000
MOF2_F_-45    F    0.42767033    0.06847027    0.00000000    -0.18280000
MOF2_F_-46    F    0.07197991    0.42997992    0.00000000    -0.14670000
MOF2_F_-47    F    0.93153030    0.35920025    0.00000000    -0.18280000
opls_144-48    H    0.50869027    0.32838007    0.00000000    0.13070000
opls_910-49    H    0.63980002    0.46973011    0.00000000    0.29260000
opls_144-50    H    0.67161985    0.18031001    0.00000000    0.13070000
opls_910-51    H    0.53026987    0.17007012    0.00000000    0.29270000
opls_144-52    H    0.81968987    0.49130993    0.00000000    0.13070000
opls_910-53    H    0.82993011    0.36019977    0.00000000    0.29250000
opls_144-54    H    0.49130973    0.67161993    0.00000000    0.13080000
opls_910-55    H    0.36019998    0.53026989    0.00000000    0.29250000
opls_144-56    H    0.32838015    0.81968999    0.00000000    0.13070000
opls_910-57    H    0.46973013    0.82992988    0.00000000    0.29260000
opls_144-58    H    0.18031013    0.50869007    0.00000000    0.13070000
opls_910-59    H    0.17006989    0.63980023    0.00000000    0.29250000
opls_238-60    N    0.58197023    0.43731014    0.00000000    -0.25700000
opls_238-61    N    0.56269015    0.14466008    0.00000000    -0.25710000
opls_238-62    N    0.85534010    0.41802979    0.00000000    -0.25710000
opls_238-63    N    0.41802977    0.56268986    0.00000000    -0.25710000
opls_238-64    N    0.43730985    0.85533992    0.00000000    -0.25700000
opls_238-65    N    0.14465990    0.58197021    0.00000000    -0.25710000
opls_281-66    O    0.70666014    0.47275023    0.00000000    -0.39310000
opls_281-67    O    0.52725007    0.23390998    0.00000000    -0.39310000
opls_281-68    O    0.76608979    0.29333979    0.00000000    -0.39300000
opls_281-69    O    0.29333986    0.52724977    0.00000000    -0.39310000
opls_281-70    O    0.47274993    0.76609002    0.00000000    -0.39300000
opls_281-71    O    0.23391021    0.70666021    0.00000000    -0.39310000
