#======================================================================
# Crystal Data Generated By AuToFF
#----------------------------------------------------------------------

data_AuToFF_phase_1

_cell_length_a                         46.5335
_cell_length_b                         46.5335
_cell_length_c                         4.7830
_cell_angle_alpha                      90.00
_cell_angle_beta                       90.00
_cell_angle_gamma                      120.00
_symmetry_space_group_name_H-M_alt     'P 1'
_symmetry_space_group_IT_number        1

loop_
_space_group_symop_operation_xyz
   'x, y, z'

loop_
   _atom_site_label
   _atom_site_type_symbol
   _atom_site_fract_x
   _atom_site_fract_y
   _atom_site_fract_z
   _atom_site_charge
opls_520-0    N    0.36637003    0.67786003    0.90273050    -0.49930000
opls_900-1    N    0.43207992    0.58163005    0.52389086    -0.42830000
opls_901-2    N    0.40647011    0.43747008    0.93527911    -0.27430000
opls_902-3    N    0.45083999    0.37286010    0.66615095    -0.11030000
opls_900-4    N    0.34364012    0.31294004    0.83862011    -0.49350000
opls_900-5    N    0.53978005    0.34449998    0.85758938    -0.49350000
opls_520-6    N    0.63577995    0.32935997    0.80780054    -0.46470000
opls_900-7    N    0.60357017    0.45083015    0.43231027    -0.42830000
opls_901-8    N    0.67226013    0.60451017    0.92357098    -0.27430000
opls_902-9    N    0.62166990    0.66412997    0.89439055    -0.11030000
opls_900-10    N    0.71494002    0.75921997    0.95931006    -0.49380000
opls_900-11    N    0.52054007    0.67655007    0.92196948    -0.49340000
opls_238-12    N    0.52031004    0.50772013    0.47832950    -0.42810000
opls_520-13    N    0.32214002    0.68851012    0.90273050    -0.49930000
opls_900-14    N    0.41836999    0.85045010    0.52389086    -0.42820000
opls_901-15    N    0.56253008    0.96900012    0.93527911    -0.27430000
opls_902-16    N    0.62714003    0.07797998    0.66615095    -0.11030000
opls_900-17    N    0.68706012    0.03070012    0.83862011    -0.49360000
opls_900-18    N    0.65550009    0.19528010    0.85758938    -0.49350000
opls_520-19    N    0.67064005    0.30642005    0.80780054    -0.46470000
opls_900-20    N    0.54917005    0.15274004    0.43231027    -0.42820000
opls_901-21    N    0.39548996    0.06775000    0.92357098    -0.27430000
opls_902-22    N    0.33586998    0.95754009    0.89439055    -0.11030000
opls_900-23    N    0.24078002    0.95571995    0.95931006    -0.49380000
opls_900-24    N    0.32345016    0.84399016    0.92196948    -0.49330000
opls_238-25    N    0.49227998    0.01259008    0.47832950    -0.42820000
opls_520-26    N    0.31149007    0.63363011    0.90273050    -0.49930000
opls_900-27    N    0.14955000    0.56792010    0.52389086    -0.42830000
opls_901-28    N    0.03099993    0.59353004    0.93527911    -0.27430000
opls_902-29    N    0.92201998    0.54915992    0.66615095    -0.11030000
opls_900-30    N    0.96930010    0.65636009    0.83862011    -0.49360000
opls_900-31    N    0.80471986    0.46021992    0.85758938    -0.49350000
opls_520-32    N    0.69358000    0.36421998    0.80780054    -0.46470000
opls_900-33    N    0.84726012    0.39643005    0.43231027    -0.42830000
opls_901-34    N    0.93225003    0.32774009    0.92357098    -0.27430000
opls_902-35    N    0.04245991    0.37832994    0.89439055    -0.11030000
opls_900-36    N    0.04427996    0.28506007    0.95931006    -0.49380000
opls_900-37    N    0.15601010    0.47946001    0.92196948    -0.49340000
opls_238-38    N    0.98741011    0.47969004    0.47832950    -0.42820000
opls_531-39    C    0.34459011    0.64469013    0.90408948    0.33780000
opls_700-40    C    0.35684007    0.62116013    0.86827096    -0.00230000
opls_523-41    C    0.38868993    0.62936004    0.96066067    -0.13040000
opls_145-42    C    0.40175997    0.60887005    0.89609032    -0.13180000
opls_700-43    C    0.38342996    0.58015012    0.73386996    0.05130000
opls_145-44    C    0.35118000    0.57141992    0.64964039    -0.12490000
opls_523-45    C    0.33789006    0.59158013    0.71816015    -0.12940000
opls_701-46    C    0.39875010    0.55987999    0.63605060    0.13370000
opls_147-47    C    0.45635996    0.57126012    0.51238971    0.15830000
opls_145-48    C    0.48593014    0.59024015    0.36513067    -0.16790000
opls_700-49    C    0.59491998    0.49694001    0.57422956    -0.04630000
opls_136-50    C    0.40029997    0.53858998    0.87384905    -0.30400000
opls_158-51    C    0.62953996    0.51515006    0.69515994    0.16290000
opls_916-52    C    0.54268999    0.49485014    0.46209910    0.18080000
opls_145-53    C    0.57434006    0.51101995    0.58717959    -0.24220000
opls_145-54    C    0.53182005    0.46432993    0.32901944    -0.18210000
opls_182-55    C    0.37835014    0.46307010    0.68776918    0.00470000
opls_907-56    C    0.39713997    0.44383994    0.65867029    -0.09030000
opls_907-57    C    0.41650015    0.41210009    0.92569099    -0.02650000
opls_136-58    C    0.45089004    0.42504998    0.79070040    -0.23550000
opls_908-59    C    0.46582996    0.40265995    0.84744094    -0.09640000
opls_908-60    C    0.47547003    0.36447010    0.55421075    -0.09300000
opls_908-61    C    0.42135005    0.34396994    0.78931006    -0.06290000
opls_136-62    C    0.39418008    0.32767011    0.56665064    -0.24230000
opls_223-63    C    0.36155995    0.29960007    0.68553000    -0.03050000
opls_136-64    C    0.49469008    0.35718013    0.78043069    -0.24020000
opls_223-65    C    0.52278013    0.35354011    0.64844031    -0.03130000
opls_234-66    C    0.52953994    0.54075007    0.46758102    0.46440000
opls_531-67    C    0.66267005    0.36039012    0.80914071    0.33820000
opls_700-68    C    0.65819997    0.38942991    0.77536065    -0.00520000
opls_523-69    C    0.62909995    0.38831004    0.86991010    -0.12400000
opls_145-70    C    0.62303017    0.41410013    0.80680953    -0.12290000
opls_700-71    C    0.64567001    0.44121011    0.64475016    0.05130000
opls_145-72    C    0.67530004    0.44286994    0.55865984    -0.12770000
opls_523-73    C    0.68165004    0.41732998    0.62536902    -0.13180000
opls_701-74    C    0.63726000    0.46706001    0.54765001    0.13370000
opls_147-75    C    0.58347008    0.46622004    0.43900063    0.15830000
opls_145-76    C    0.55210999    0.45030012    0.31472925    -0.18270000
opls_700-77    C    0.45037993    0.54179997    0.64555091    -0.05800000
opls_136-78    C    0.64039012    0.49032003    0.78768973    -0.30410000
opls_158-79    C    0.41711006    0.51902011    0.77753084    0.16140000
opls_700-80    C    0.50427000    0.55122001    0.48621995    -0.06510000
opls_145-81    C    0.47453997    0.53220995    0.63496968    -0.17680000
opls_145-82    C    0.50962997    0.58030993    0.35130044    -0.12400000
opls_182-83    C    0.67777997    0.56578011    0.60346017    0.00560000
opls_907-84    C    0.66820004    0.59286006    0.63390968    -0.09030000
opls_907-85    C    0.66187998    0.62943995    0.95970939    -0.04520000
opls_136-86    C    0.62404999    0.61342002    0.99701024    -0.24170000
opls_908-87    C    0.61450009    0.63834013    0.10770019    -0.06860000
opls_908-88    C    0.59120998    0.65968001    0.75495087    -0.09710000
opls_908-89    C    0.64460008    0.69798996    0.99910098    -0.08080000
opls_136-90    C    0.65912992    0.72342000    0.76040978    -0.24170000
opls_223-91    C    0.68457012    0.75817008    0.86486097    -0.03140000
opls_136-92    C    0.57105010    0.67133012    0.92923061    -0.24040000
opls_223-93    C    0.53755013    0.66091006    0.78923061    -0.03030000
opls_531-94    C    0.35531010    0.69990017    0.90408948    0.33780000
opls_700-95    C    0.37884006    0.73568005    0.86827096    -0.00230000
opls_523-96    C    0.37064018    0.75933015    0.96066067    -0.13040000
opls_145-97    C    0.39112997    0.79289013    0.89609032    -0.13180000
opls_700-98    C    0.41985019    0.80328017    0.73386996    0.05130000
opls_145-99    C    0.42858012    0.77976009    0.64964039    -0.12490000
opls_523-100    C    0.40841994    0.74631004    0.71816015    -0.12940000
opls_701-101    C    0.44012008    0.83886996    0.63605060    0.13370000
opls_147-102    C    0.42874004    0.88510017    0.51238971    0.15830000
opls_145-103    C    0.40975995    0.89568996    0.36513067    -0.16790000
opls_700-104    C    0.50306002    0.09797988    0.57422956    -0.04630000
opls_136-105    C    0.46141004    0.86171012    0.87384905    -0.30400000
opls_158-106    C    0.48484986    0.11438989    0.69515994    0.16290000
opls_916-107    C    0.50515004    0.04783992    0.46209910    0.18080000
opls_145-108    C    0.48897994    0.06331988    0.58717959    -0.24220000
opls_145-109    C    0.53567004    0.06748994    0.32901944    -0.18210000
opls_182-110    C    0.53693007    0.91528018    0.68776918    0.00470000
opls_907-111    C    0.55616006    0.95330005    0.65867029    -0.09030000
opls_907-112    C    0.58790002    0.00440009    0.92569099    -0.02650000
opls_136-113    C    0.57494992    0.02583997    0.79070040    -0.23550000
opls_908-114    C    0.59734000    0.06317000    0.84744094    -0.09640000
opls_908-115    C    0.63553008    0.11100000    0.55421075    -0.09290000
opls_908-116    C    0.65602996    0.07737997    0.78931006    -0.06290000
opls_136-117    C    0.67233009    0.06651002    0.56665064    -0.24230000
opls_223-118    C    0.70040012    0.06196005    0.68553000    -0.03050000
opls_136-119    C    0.64281990    0.13750996    0.78043069    -0.24020000
opls_223-120    C    0.64646003    0.16924013    0.64844031    -0.03130000
opls_234-121    C    0.45925005    0.98879010    0.46758102    0.46440000
opls_531-122    C    0.63961004    0.30228002    0.80914071    0.33820000
opls_700-123    C    0.61056986    0.26876992    0.77536065    -0.00520000
opls_523-124    C    0.61169006    0.24078995    0.86991010    -0.12400000
opls_145-125    C    0.58590010    0.20893001    0.80680953    -0.12290000
opls_700-126    C    0.55878987    0.20445994    0.64475016    0.05130000
opls_145-127    C    0.55713003    0.23242998    0.55865984    -0.12770000
opls_523-128    C    0.58267004    0.26431995    0.62536902    -0.13180000
opls_701-129    C    0.53293992    0.17019995    0.54765001    0.13380000
opls_147-130    C    0.53378010    0.11725000    0.43900063    0.15830000
opls_145-131    C    0.54970005    0.10180999    0.31472925    -0.18270000
opls_700-132    C    0.45820011    0.90858005    0.64555091    -0.05800000
opls_136-133    C    0.50967994    0.15007001    0.78768973    -0.30400000
opls_158-134    C    0.48098006    0.89809001    0.77753084    0.16140000
opls_700-135    C    0.44878013    0.95305017    0.48621995    -0.06510000
opls_145-136    C    0.46779007    0.94233011    0.63496968    -0.17680000
opls_145-137    C    0.41969012    0.92932017    0.35130044    -0.12400000
opls_182-138    C    0.43422000    0.11200002    0.60346017    0.00560000
opls_907-139    C    0.40713994    0.07533998    0.63390968    -0.09030000
opls_907-140    C    0.37056004    0.03244011    0.95970939    -0.04520000
opls_136-141    C    0.38657989    0.01062999    0.99701024    -0.24160000
opls_908-142    C    0.36165993    0.97616007    0.10770019    -0.06860000
opls_908-143    C    0.34032017    0.93153014    0.75495087    -0.09710000
opls_908-144    C    0.30200996    0.94661009    0.99910098    -0.08080000
opls_136-145    C    0.27657996    0.93571012    0.76040978    -0.24170000
opls_223-146    C    0.24183002    0.92640001    0.86486097    -0.03140000
opls_136-147    C    0.32867014    0.89972007    0.92923061    -0.24040000
opls_223-148    C    0.33908996    0.87663995    0.78923061    -0.03030000
opls_531-149    C    0.30009992    0.65540995    0.90408948    0.33780000
opls_700-150    C    0.26432000    0.64316007    0.86827096    -0.00230000
opls_523-151    C    0.24067002    0.61131005    0.96066067    -0.13040000
opls_145-152    C    0.20710997    0.59824006    0.89609032    -0.13170000
opls_700-153    C    0.19671998    0.61656996    0.73386996    0.05130000
opls_145-154    C    0.22024010    0.64881999    0.64964039    -0.12490000
opls_523-155    C    0.25369013    0.66211008    0.71816015    -0.12940000
opls_701-156    C    0.16113004    0.60125005    0.63605060    0.13370000
opls_147-157    C    0.11489991    0.54363996    0.51238971    0.15830000
opls_145-158    C    0.10431004    0.51407013    0.36513067    -0.16790000
opls_700-159    C    0.90202000    0.40508010    0.57422956    -0.04630000
opls_136-160    C    0.13829012    0.59970014    0.87384905    -0.30400000
opls_158-161    C    0.88560997    0.37046005    0.69515994    0.16290000
opls_916-162    C    0.95215997    0.45730994    0.46209910    0.18080000
opls_145-163    C    0.93667987    0.42565992    0.58717959    -0.24220000
opls_145-164    C    0.93251013    0.46818013    0.32901944    -0.18210000
opls_182-165    C    0.08471992    0.62164996    0.68776918    0.00470000
opls_907-166    C    0.04669997    0.60286001    0.65867029    -0.09030000
opls_907-167    C    0.99559995    0.58350007    0.92569099    -0.02650000
opls_136-168    C    0.97416004    0.54911004    0.79070040    -0.23550000
opls_908-169    C    0.93683004    0.53417004    0.84744094    -0.09640000
opls_908-170    C    0.88900001    0.52453015    0.55421075    -0.09300000
opls_908-171    C    0.92261998    0.57865009    0.78931006    -0.06290000
opls_136-172    C    0.93348996    0.60582012    0.56665064    -0.24230000
opls_223-173    C    0.93804005    0.63844013    0.68553000    -0.03050000
opls_136-174    C    0.86249014    0.50531016    0.78043069    -0.24020000
opls_223-175    C    0.83075996    0.47722001    0.64844031    -0.03130000
opls_234-176    C    0.01121014    0.47046008    0.46758102    0.46440000
opls_531-177    C    0.69772003    0.33733011    0.80914071    0.33820000
opls_700-178    C    0.73123005    0.34179992    0.77536065    -0.00520000
opls_523-179    C    0.75920998    0.37090001    0.86991010    -0.12400000
opls_145-180    C    0.79107007    0.37697011    0.80680953    -0.12280000
opls_700-181    C    0.79553991    0.35432995    0.64475016    0.05130000
opls_145-182    C    0.76756993    0.32470007    0.55865984    -0.12770000
opls_523-183    C    0.73568013    0.31835007    0.62536902    -0.13180000
opls_701-184    C    0.82980008    0.36274005    0.54765001    0.13380000
opls_147-185    C    0.88275003    0.41652996    0.43900063    0.15830000
opls_145-186    C    0.89819008    0.44789014    0.31472925    -0.18270000
opls_700-187    C    0.09141996    0.54961998    0.64555091    -0.05800000
opls_136-188    C    0.84992994    0.35960996    0.78768973    -0.30410000
opls_158-189    C    0.10191000    0.58289013    0.77753084    0.16140000
opls_700-190    C    0.04694999    0.49573006    0.48621995    -0.06510000
opls_145-191    C    0.05766996    0.52545994    0.63496968    -0.17670000
opls_145-192    C    0.07068004    0.49037015    0.35130044    -0.12400000
opls_182-193    C    0.88800015    0.32222012    0.60346017    0.00560000
opls_907-194    C    0.92466002    0.33179997    0.63390968    -0.09020000
opls_907-195    C    0.96755998    0.33811995    0.95970939    -0.04520000
opls_136-196    C    0.98936990    0.37594999    0.99701024    -0.24170000
opls_908-197    C    0.02384010    0.38550006    0.10770019    -0.06860000
opls_908-198    C    0.06846996    0.40879010    0.75495087    -0.09710000
opls_908-199    C    0.05338996    0.35539995    0.99910098    -0.08080000
opls_136-200    C    0.06429003    0.34087013    0.76040978    -0.24170000
opls_223-201    C    0.07359986    0.31542991    0.86486097    -0.03140000
opls_136-202    C    0.10028010    0.42895006    0.92923061    -0.24040000
opls_223-203    C    0.12335991    0.46244999    0.78923061    -0.03030000
opls_146-204    H    0.49045005    0.61262993    0.25902990    0.11380000
opls_526-205    H    0.40374994    0.65198010    0.07740958    0.11100000
opls_146-206    H    0.42674997    0.61619005    0.96176040    0.11260000
opls_146-207    H    0.33653988    0.54938995    0.52486097    0.11270000
opls_526-208    H    0.31338001    0.58481002    0.64217019    0.11270000
opls_526-209    H    0.50738989    0.45138997    0.23693080    0.11530000
opls_526-210    H    0.58283009    0.53407004    0.69942923    0.11540000
opls_185-211    H    0.42155012    0.50785016    0.96754966    0.04700000
opls_185-212    H    0.35506000    0.44991004    0.56438010    0.05600000
opls_185-213    H    0.37018014    0.46304008    0.90719005    0.05480000
opls_140-214    H    0.41964994    0.45803005    0.52722977    0.06520000
opls_140-215    H    0.38064004    0.41998015    0.55011917    0.06010000
opls_910-216    H    0.42600000    0.45957003    0.01515994    0.25580000
opls_140-217    H    0.39751001    0.38984009    0.81246916    0.05280000
opls_140-218    H    0.41710004    0.40429001    0.14395986    0.05300000
opls_140-219    H    0.44942994    0.42792002    0.56163914    0.10610000
opls_140-220    H    0.46821000    0.45000011    0.87777964    0.08110000
opls_140-221    H    0.49286005    0.41819004    0.80324901    0.05190000
opls_140-222    H    0.46353998    0.39582011    0.07213046    0.05300000
opls_140-223    H    0.42712001    0.32520008    0.87275977    0.05340000
opls_140-224    H    0.41154993    0.35148994    0.96860966    0.05310000
opls_140-225    H    0.40294999    0.31712995    0.40103910    0.08110000
opls_140-226    H    0.38966001    0.34667000    0.46781936    0.08110000
opls_911-227    H    0.36625996    0.28306996    0.82284968    0.06000000
opls_911-228    H    0.34593000    0.28443996    0.50763956    0.06510000
opls_909-229    H    0.35468997    0.32099007    0.03461008    0.26660000
opls_909-230    H    0.31965004    0.29332997    0.87688062    0.26670000
opls_140-231    H    0.46292002    0.34278009    0.41154924    0.06520000
opls_140-232    H    0.49348996    0.38547003    0.42371942    0.05110000
opls_140-233    H    0.47782005    0.33386999    0.89269078    0.09700000
opls_140-234    H    0.50574016    0.37757012    0.93549028    0.12270000
opls_911-235    H    0.51253987    0.33407992    0.48369015    0.06520000
opls_911-236    H    0.54109013    0.37734009    0.54888982    0.05330000
opls_909-237    H    0.52272996    0.32162011    0.94504913    0.26660000
opls_909-238    H    0.54830006    0.36213011    0.01808907    0.26660000
opls_140-239    H    0.66631999    0.50366000    0.86659001    0.08110000
opls_140-240    H    0.62402012    0.47531005    0.96016935    0.11420000
opls_702-241    H    0.51767011    0.17252009    0.38016099    0.08680000
opls_910-242    H    0.57148989    0.16635992    0.32384069    0.25640000
opls_146-243    H    0.54337993    0.42691007    0.20780054    0.11520000
opls_526-244    H    0.61072004    0.36712996    0.98692034    0.10850000
opls_146-245    H    0.59993996    0.41224005    0.87282041    0.11630000
opls_146-246    H    0.69315013    0.46350013    0.43347063    0.11150000
opls_526-247    H    0.70417005    0.41869005    0.54796989    0.11270000
opls_526-248    H    0.53189002    0.59510005    0.23093038    0.10950000
opls_526-249    H    0.46997001    0.50991993    0.74361070    0.11510000
opls_185-250    H    0.62883011    0.52875008    0.88486933    0.04700000
opls_185-251    H    0.69912001    0.57488997    0.45716078    0.05600000
opls_185-252    H    0.68689997    0.56104999    0.80417939    0.05500000
opls_140-253    H    0.64219009    0.58317996    0.56349990    0.06520000
opls_140-254    H    0.68477003    0.61411011    0.49795944    0.05300000
opls_910-255    H    0.65810004    0.58421001    0.05394104    0.25650000
opls_140-256    H    0.67032005    0.64711995    0.78090947    0.06010000
opls_140-257    H    0.67451987    0.64427995    0.14860966    0.05300000
opls_140-258    H    0.61125006    0.60312999    0.79490905    0.10240000
opls_140-259    H    0.61511995    0.59266998    0.14904035    0.10240000
opls_140-260    H    0.58784012    0.62454010    0.16421911    0.05280000
opls_140-261    H    0.62798001    0.64895002    0.30731967    0.06000000
opls_140-262    H    0.63227987    0.70577994    0.15600042    0.05280000
opls_140-263    H    0.66575995    0.69784008    0.10541083    0.05320000
opls_140-264    H    0.63896017    0.72547016    0.65561990    0.11760000
opls_140-265    H    0.67098999    0.71501015    0.60380096    0.08110000
opls_911-266    H    0.67379005    0.76603004    0.03613004    0.05190000
opls_911-267    H    0.69066008    0.77586001    0.68823960    0.06000000
opls_909-268    H    0.71140006    0.75049995    0.16507004    0.26660000
opls_909-269    H    0.73363993    0.78411998    0.96854903    0.26660000
opls_140-270    H    0.59808999    0.67325993    0.55384905    0.05340000
opls_140-271    H    0.57509004    0.63307004    0.69835041    0.05100000
opls_140-272    H    0.58514013    0.69880015    0.94747021    0.11270000
opls_140-273    H    0.56640007    0.66038995    0.14150951    0.12270000
opls_911-274    H    0.54145010    0.66803005    0.56524984    0.09800000
opls_911-275    H    0.52153991    0.63354003    0.80224963    0.05280000
opls_909-276    H    0.53537010    0.70231015    0.90352917    0.26660000
opls_909-277    H    0.51765008    0.67077998    0.13485051    0.26660000
opls_140-278    H    0.37490998    0.52117995    0.95237926    0.10530000
opls_140-279    H    0.41503005    0.55508014    0.04690989    0.11250000
opls_702-280    H    0.45711003    0.84029009    0.46639975    0.08680000
opls_910-281    H    0.39660007    0.83355000    0.42042024    0.25640000
opls_241-282    H    0.49502998    0.49022995    0.46844031    0.25640000
opls_146-283    H    0.38736999    0.87782012    0.25902990    0.11380000
opls_526-284    H    0.34801989    0.75176995    0.07740958    0.11090000
opls_146-285    H    0.38381007    0.81055996    0.96176040    0.11550000
opls_146-286    H    0.45061007    0.78715006    0.52486097    0.11270000
opls_526-287    H    0.41519004    0.72856998    0.64217019    0.11270000
opls_526-288    H    0.54861004    0.05599988    0.23693080    0.11530000
opls_526-289    H    0.46593008    0.04876004    0.69942923    0.11260000
opls_185-290    H    0.49214995    0.91370000    0.96754966    0.04700000
opls_185-291    H    0.55008989    0.90514995    0.56438010    0.05600000
opls_185-292    H    0.53696007    0.90714007    0.90719005    0.05480000
opls_140-293    H    0.54197006    0.96162007    0.52722977    0.06520000
opls_140-294    H    0.58001990    0.96066000    0.55011917    0.06010000
opls_910-295    H    0.54042996    0.96643009    0.01515994    0.25590000
opls_140-296    H    0.61015985    0.00766988    0.81246916    0.05280000
opls_140-297    H    0.59570988    0.01280993    0.14395986    0.05300000
opls_140-298    H    0.57208012    0.02151011    0.56163914    0.10610000
opls_140-299    H    0.55000008    0.01821004    0.87777964    0.08110000
opls_140-300    H    0.58181005    0.07466999    0.80324901    0.05190000
opls_140-301    H    0.60418008    0.06771997    0.07213046    0.05300000
opls_140-302    H    0.67479999    0.10191991    0.87275977    0.05340000
opls_140-303    H    0.64851003    0.06006002    0.96860966    0.05310000
opls_140-304    H    0.68287007    0.08582009    0.40103910    0.08110000
opls_140-305    H    0.65332989    0.04298995    0.46781936    0.08110000
opls_911-306    H    0.71692998    0.08319001    0.82284968    0.06000000
opls_911-307    H    0.71556006    0.06149007    0.50763956    0.06510000
opls_909-308    H    0.67900992    0.03369993    0.03461008    0.26660000
opls_909-309    H    0.70666999    0.02631988    0.87688062    0.26660000
opls_140-310    H    0.65722008    0.12014013    0.41154924    0.06520000
opls_140-311    H    0.61453007    0.10802004    0.42371942    0.05110000
opls_140-312    H    0.66612998    0.14395004    0.89269078    0.09700000
opls_140-313    H    0.62243010    0.12817007    0.93549028    0.12270000
opls_911-314    H    0.66591987    0.17845991    0.48369015    0.06520000
opls_911-315    H    0.62266000    0.16374994    0.54888982    0.05330000
opls_909-316    H    0.67838001    0.20111000    0.94504913    0.26660000
opls_909-317    H    0.63786994    0.18616999    0.01808907    0.26660000
opls_140-318    H    0.49634009    0.16266009    0.86659001    0.08110000
opls_140-319    H    0.52468989    0.14870994    0.96016935    0.11420000
opls_702-320    H    0.82748002    0.34515011    0.38016099    0.08680000
opls_910-321    H    0.83364002    0.40512998    0.32384069    0.25640000
opls_146-322    H    0.57309015    0.11647008    0.20780054    0.11520000
opls_526-323    H    0.63287004    0.24359001    0.98692034    0.10850000
opls_146-324    H    0.58776000    0.18770005    0.87282041    0.11630000
opls_146-325    H    0.53649993    0.22965003    0.43347063    0.11150000
opls_526-326    H    0.58131003    0.28547993    0.54796989    0.11270000
opls_526-327    H    0.40490012    0.93679004    0.23093038    0.10950000
opls_526-328    H    0.49007994    0.96005007    0.74361070    0.11500000
opls_185-329    H    0.47125006    0.10007993    0.88486933    0.04700000
opls_185-330    H    0.42511007    0.12423004    0.45716078    0.05600000
opls_185-331    H    0.43894998    0.12584992    0.80417939    0.05500000
opls_140-332    H    0.41682000    0.05901012    0.56349990    0.06520000
opls_140-333    H    0.38588991    0.07065998    0.49795944    0.05300000
opls_910-334    H    0.41578995    0.07389007    0.05394104    0.25650000
opls_140-335    H    0.35287992    0.02319997    0.78090947    0.06020000
opls_140-336    H    0.35572003    0.03024006    0.14860966    0.05300000
opls_140-337    H    0.39686992    0.00812001    0.79490905    0.10240000
opls_140-338    H    0.40733000    0.02245008    0.14904035    0.10240000
opls_140-339    H    0.37546005    0.96330001    0.16421911    0.05280000
opls_140-340    H    0.35105007    0.97903010    0.30731967    0.06000000
opls_140-341    H    0.29421995    0.92650001    0.15600042    0.05280000
opls_140-342    H    0.30216011    0.96792020    0.10541083    0.05320000
opls_140-343    H    0.27453007    0.91349007    0.65561990    0.11760000
opls_140-344    H    0.28498991    0.95598001    0.60380096    0.08110000
opls_911-345    H    0.23397013    0.90776018    0.03613004    0.05200000
opls_911-346    H    0.22414010    0.91480002    0.68823960    0.06000000
opls_909-347    H    0.24950002    0.96089996    0.16507004    0.26660000
opls_909-348    H    0.21588009    0.94952008    0.96854903    0.26670000
opls_140-349    H    0.32674006    0.92483000    0.55384905    0.05340000
opls_140-350    H    0.36693002    0.94202017    0.69835041    0.05100000
opls_140-351    H    0.30120010    0.88634015    0.94747021    0.11270000
opls_140-352    H    0.33960993    0.90601002    0.14150951    0.12270000
opls_911-353    H    0.33196999    0.87342004    0.56524984    0.09800000
opls_911-354    H    0.36645994    0.88799998    0.80224963    0.05280000
opls_909-355    H    0.29769011    0.83306017    0.90352917    0.26660000
opls_909-356    H    0.32922014    0.84687012    0.13485051    0.26660000
opls_140-357    H    0.47882007    0.85373006    0.95237926    0.10530000
opls_140-358    H    0.44491995    0.85995004    0.04690989    0.11250000
opls_702-359    H    0.15971008    0.61682009    0.46639975    0.08680000
opls_910-360    H    0.16645007    0.56305003    0.42042024    0.25640000
opls_241-361    H    0.50977001    0.00480010    0.46844031    0.25640000
opls_146-362    H    0.12217996    0.50954994    0.25902990    0.11380000
opls_526-363    H    0.24822995    0.59624995    0.07740958    0.11090000
opls_146-364    H    0.18943995    0.57324998    0.96176040    0.11270000
opls_146-365    H    0.21285005    0.66345999    0.52486097    0.11270000
opls_526-366    H    0.27142996    0.68662000    0.64217019    0.11270000
opls_526-367    H    0.94400007    0.49261015    0.23693080    0.11530000
opls_526-368    H    0.95124004    0.41716992    0.69942923    0.11540000
opls_185-369    H    0.08630005    0.57845009    0.96754966    0.04700000
opls_185-370    H    0.09484990    0.64494001    0.56438010    0.05600000
opls_185-371    H    0.09286013    0.62982010    0.90719005    0.05480000
opls_140-372    H    0.03838012    0.58035013    0.52722977    0.06520000
opls_140-373    H    0.03933997    0.61936009    0.55011917    0.06010000
opls_910-374    H    0.03357017    0.57400012    0.01515994    0.25580000
opls_140-375    H    0.99232993    0.60249003    0.81246916    0.05280000
opls_140-376    H    0.98719008    0.58290005    0.14395986    0.05300000
opls_140-377    H    0.97849006    0.55057012    0.56163914    0.10610000
opls_140-378    H    0.98179005    0.53179009    0.87777964    0.08110000
opls_140-379    H    0.92532990    0.50713997    0.80324901    0.05190000
opls_140-380    H    0.93228007    0.53646016    0.07213046    0.05300000
opls_140-381    H    0.89808000    0.57288000    0.87275977    0.05340000
opls_140-382    H    0.93994004    0.58845004    0.96860966    0.05310000
opls_140-383    H    0.91417994    0.59704997    0.40103910    0.08110000
opls_140-384    H    0.95701010    0.61034006    0.46781936    0.08110000
opls_911-385    H    0.91681006    0.63374003    0.82284968    0.06000000
opls_911-386    H    0.93850994    0.65406997    0.50763956    0.06510000
opls_909-387    H    0.96629990    0.64530999    0.03461008    0.26660000
opls_909-388    H    0.97367997    0.68035015    0.87688062    0.26660000
opls_140-389    H    0.87986003    0.53708003    0.41154924    0.06520000
opls_140-390    H    0.89197997    0.50650993    0.42371942    0.05120000
opls_140-391    H    0.85604996    0.52217997    0.89269078    0.09700000
opls_140-392    H    0.87183008    0.49426006    0.93549028    0.12270000
opls_911-393    H    0.82153993    0.48745992    0.48369015    0.06520000
opls_911-394    H    0.83625009    0.45890997    0.54888982    0.05330000
opls_909-395    H    0.79889015    0.47727014    0.94504913    0.26660000
opls_909-396    H    0.81383013    0.45170015    0.01808907    0.26660000
opls_140-397    H    0.83733992    0.33367991    0.86659001    0.08110000
opls_140-398    H    0.85128999    0.37598001    0.96016935    0.11420000
opls_702-399    H    0.65485000    0.48233004    0.38016099    0.08680000
opls_910-400    H    0.59487009    0.42851010    0.32384069    0.25650000
opls_146-401    H    0.88353005    0.45662010    0.20780054    0.11630000
opls_526-402    H    0.75640992    0.38928003    0.98692034    0.10850000
opls_146-403    H    0.81230016    0.40006015    0.87282041    0.11630000
opls_146-404    H    0.77035006    0.30685009    0.43347063    0.11150000
opls_526-405    H    0.71451993    0.29583002    0.54796989    0.11270000
opls_526-406    H    0.06320999    0.46811015    0.23093038    0.10950000
opls_526-407    H    0.03995005    0.53003001    0.74361070    0.11500000
opls_185-408    H    0.89992004    0.37116999    0.88486933    0.04700000
opls_185-409    H    0.87576992    0.30087999    0.45716078    0.05600000
opls_185-410    H    0.87415005    0.31310009    0.80417939    0.05500000
opls_140-411    H    0.94098991    0.35780992    0.56349990    0.06520000
opls_140-412    H    0.92934006    0.31522991    0.49795944    0.05300000
opls_910-413    H    0.92611001    0.34189992    0.05394104    0.25640000
opls_140-414    H    0.97680002    0.32968008    0.78090947    0.06010000
opls_140-415    H    0.96976010    0.32547999    0.14860966    0.05300000
opls_140-416    H    0.99188002    0.38875000    0.79490905    0.10240000
opls_140-417    H    0.97755005    0.38487994    0.14904035    0.10240000
opls_140-418    H    0.03670016    0.41216015    0.16421911    0.05280000
opls_140-419    H    0.02097004    0.37202013    0.30731967    0.06000000
opls_140-420    H    0.07349996    0.36772005    0.15600042    0.05280000
opls_140-421    H    0.03208007    0.33423997    0.10541083    0.05320000
opls_140-422    H    0.08651010    0.36104001    0.65561990    0.11760000
opls_140-423    H    0.04402002    0.32901009    0.60380096    0.08110000
opls_911-424    H    0.09223994    0.32621003    0.03613004    0.05190000
opls_911-425    H    0.08520003    0.30933996    0.68823960    0.06000000
opls_909-426    H    0.03910014    0.28860009    0.16507004    0.26670000
opls_909-427    H    0.05047998    0.26635994    0.96854903    0.26660000
opls_140-428    H    0.07516995    0.40191006    0.55384905    0.05340000
opls_140-429    H    0.05798007    0.42491003    0.69835041    0.05100000
opls_140-430    H    0.11365990    0.41485995    0.94747021    0.11270000
opls_140-431    H    0.09399000    0.43360003    0.14150951    0.12270000
opls_911-432    H    0.12658003    0.45855016    0.56524984    0.09800000
opls_911-433    H    0.11199993    0.47845999    0.80224963    0.05280000
opls_909-434    H    0.16693991    0.46462993    0.90352917    0.26660000
opls_909-435    H    0.15313011    0.48235014    0.13485051    0.26670000
opls_140-436    H    0.14626994    0.62508998    0.95237926    0.10530000
opls_140-437    H    0.14005012    0.58497007    0.04690989    0.11250000
opls_702-438    H    0.38318002    0.54289007    0.46639975    0.08680000
opls_910-439    H    0.43695007    0.60339997    0.42042024    0.25640000
opls_241-440    H    0.99520001    0.50496995    0.46844031    0.25640000
opls_180-441    O    0.39705999    0.49529010    0.57355007    -0.23570000
opls_180-442    O    0.65133013    0.53660012    0.48604014    -0.23560000
opls_236-443    O    0.55851991    0.56178995    0.43168932    -0.40650000
opls_180-444    O    0.50471009    0.90176999    0.57355007    -0.23580000
opls_180-445    O    0.46340006    0.11473010    0.48604014    -0.23550000
opls_236-446    O    0.43821004    0.99672996    0.43168932    -0.40650000
opls_180-447    O    0.09823005    0.60294016    0.57355007    -0.23580000
opls_180-448    O    0.88526994    0.34867004    0.48604014    -0.23560000
opls_236-449    O    0.00327005    0.44148009    0.43168932    -0.40650000
