#======================================================================
# Crystal Data Generated By AuToFF
#----------------------------------------------------------------------

data_AuToFF_phase_1

_cell_length_a                         27.0500
_cell_length_b                         27.0500
_cell_length_c                         4.3200
_cell_angle_alpha                      90.00
_cell_angle_beta                       90.00
_cell_angle_gamma                      90.00
_symmetry_space_group_name_H-M_alt     'P 1'
_symmetry_space_group_IT_number        1

loop_
_space_group_symop_operation_xyz
   'x, y, z'

loop_
   _atom_site_label
   _atom_site_type_symbol
   _atom_site_fract_x
   _atom_site_fract_y
   _atom_site_fract_z
   _atom_site_charge
opls_700-0    C    0.87600000    0.86708983    0.48831019    0.06890000
opls_145-1    C    0.88202994    0.82460000    0.67084954    -0.11970000
opls_145-2    C    0.84729982    0.78639002    0.66196991    -0.17090000
opls_145-3    C    0.80505989    0.79040998    0.47293056    0.18480000
opls_145-4    C    0.79870018    0.83309982    0.29488889    -0.17000000
opls_145-5    C    0.83390018    0.87081996    0.30030093    -0.12310000
opls_700-6    C    0.35588983    0.38921996    0.51822917    0.06190000
opls_145-7    C    0.35460998    0.34563993    0.34163889    -0.11960000
opls_145-8    C    0.31473013    0.31300000    0.36493981    -0.12610000
opls_700-9    C    0.27474011    0.32390018    0.56078009    0.06780000
opls_145-10    C    0.27518004    0.36815009    0.72915972    -0.12110000
opls_145-11    C    0.31548983    0.40020998    0.70980093    -0.12390000
opls_142-12    C    0.71046987    0.23277006    0.40288889    0.02980000
opls_700-13    C    0.08625989    0.09245989    0.49315046    -0.08650000
opls_700-14    C    0.42286987    0.60020998    0.49161111    -0.07530000
opls_543-15    C    0.40288983    0.55276007    0.43715046    0.21170000
opls_543-16    C    0.39245989    0.47360998    0.44706944    0.21250000
opls_716-17    C    0.34819002    0.49400000    0.34956944    -0.20160000
opls_716-18    C    0.35491017    0.54391017    0.34030093    -0.20160000
opls_543-19    C    0.89555009    0.03620998    0.56168056    0.19050000
opls_543-20    C    0.95641996    0.10179002    0.44628935    0.21250000
opls_716-21    C    0.96935009    0.14879002    0.34886111    -0.20160000
opls_716-22    C    0.01970018    0.15039002    0.34215972    -0.12910000
opls_700-23    C    0.12400000    0.13291017    0.48831019    0.06890000
opls_145-24    C    0.11797006    0.17540000    0.67084954    -0.11970000
opls_145-25    C    0.15270018    0.21360998    0.66196991    -0.17090000
opls_145-26    C    0.19494011    0.20959002    0.47293056    0.18480000
opls_145-27    C    0.20130018    0.16689982    0.29488889    -0.17000000
opls_145-28    C    0.16610018    0.12918004    0.30030093    -0.12310000
opls_700-29    C    0.64411017    0.61078004    0.51822917    0.06190000
opls_145-30    C    0.64539002    0.65436007    0.34163889    -0.11960000
opls_145-31    C    0.68526987    0.68700000    0.36493981    -0.12610000
opls_700-32    C    0.72525989    0.67610018    0.56078009    0.06780000
opls_145-33    C    0.72481996    0.63184991    0.72915972    -0.12110000
opls_145-34    C    0.68451017    0.59979002    0.70980093    -0.12390000
opls_142-35    C    0.28953013    0.76722994    0.40288889    0.02980000
opls_700-36    C    0.91374011    0.90754011    0.49315046    -0.08650000
opls_700-37    C    0.57713013    0.39979002    0.49161111    -0.07530000
opls_543-38    C    0.59711017    0.44723993    0.43715046    0.21170000
opls_543-39    C    0.60754011    0.52639002    0.44706944    0.21250000
opls_716-40    C    0.65180998    0.50600000    0.34956944    -0.20160000
opls_716-41    C    0.64508983    0.45608983    0.34030093    -0.20160000
opls_543-42    C    0.10444991    0.96379002    0.56168056    0.19050000
opls_543-43    C    0.04358004    0.89820998    0.44628935    0.21250000
opls_716-44    C    0.03064991    0.85120998    0.34886111    -0.20160000
opls_716-45    C    0.98030018    0.84960998    0.34215972    -0.12910000
opls_700-46    C    0.13291017    0.87600000    0.48831019    0.06890000
opls_145-47    C    0.17540000    0.88202994    0.67084954    -0.11970000
opls_145-48    C    0.21360998    0.84729982    0.66196991    -0.17090000
opls_145-49    C    0.20959002    0.80505989    0.47293056    0.18480000
opls_145-50    C    0.16689982    0.79870018    0.29488889    -0.17000000
opls_145-51    C    0.12918004    0.83390018    0.30030093    -0.12310000
opls_700-52    C    0.61078004    0.35588983    0.51822917    0.06190000
opls_145-53    C    0.65436007    0.35460998    0.34163889    -0.11960000
opls_145-54    C    0.68700000    0.31473013    0.36493981    -0.12610000
opls_700-55    C    0.67610018    0.27474011    0.56078009    0.06780000
opls_145-56    C    0.63184991    0.27518004    0.72915972    -0.12110000
opls_145-57    C    0.59979002    0.31548983    0.70980093    -0.12390000
opls_142-58    C    0.76722994    0.71046987    0.40288889    0.02980000
opls_700-59    C    0.90754011    0.08625989    0.49315046    -0.08650000
opls_700-60    C    0.39979002    0.42286987    0.49161111    -0.07530000
opls_543-61    C    0.44723993    0.40288983    0.43715046    0.21170000
opls_543-62    C    0.52639002    0.39245989    0.44706944    0.21250000
opls_716-63    C    0.50600000    0.34819002    0.34956944    -0.20160000
opls_716-64    C    0.45608983    0.35491017    0.34030093    -0.20160000
opls_543-65    C    0.96379002    0.89555009    0.56168056    0.19050000
opls_543-66    C    0.89820998    0.95641996    0.44628935    0.21250000
opls_716-67    C    0.85120998    0.96935009    0.34886111    -0.20150000
opls_716-68    C    0.84960998    0.01970018    0.34215972    -0.12910000
opls_700-69    C    0.86708983    0.12400000    0.48831019    0.06890000
opls_145-70    C    0.82460000    0.11797006    0.67084954    -0.11970000
opls_145-71    C    0.78639002    0.15270018    0.66196991    -0.17090000
opls_145-72    C    0.79040998    0.19494011    0.47293056    0.18480000
opls_145-73    C    0.83309982    0.20130018    0.29488889    -0.17000000
opls_145-74    C    0.87081996    0.16610018    0.30030093    -0.12300000
opls_700-75    C    0.38921996    0.64411017    0.51822917    0.06190000
opls_145-76    C    0.34563993    0.64539002    0.34163889    -0.11960000
opls_145-77    C    0.31300000    0.68526987    0.36493981    -0.12610000
opls_700-78    C    0.32390018    0.72525989    0.56078009    0.06790000
opls_145-79    C    0.36815009    0.72481996    0.72915972    -0.12110000
opls_145-80    C    0.40020998    0.68451017    0.70980093    -0.12390000
opls_142-81    C    0.23277006    0.28953013    0.40288889    0.02980000
opls_700-82    C    0.09245989    0.91374011    0.49315046    -0.08650000
opls_700-83    C    0.60020998    0.57713013    0.49161111    -0.07530000
opls_543-84    C    0.55276007    0.59711017    0.43715046    0.21170000
opls_543-85    C    0.47360998    0.60754011    0.44706944    0.21250000
opls_716-86    C    0.49400000    0.65180998    0.34956944    -0.20160000
opls_716-87    C    0.54391017    0.64508983    0.34030093    -0.20160000
opls_543-88    C    0.03620998    0.10444991    0.56168056    0.19050000
opls_543-89    C    0.10179002    0.04358004    0.44628935    0.21250000
opls_716-90    C    0.14879002    0.03064991    0.34886111    -0.20160000
opls_716-91    C    0.15039002    0.98030018    0.34215972    -0.12910000
opls_750-92    N    0.24717006    0.76755009    0.54450926    -0.33120000
opls_542-93    N    0.42636007    0.50958004    0.49777083    -0.39140000
opls_542-94    N    0.99741996    0.07420998    0.49775000    -0.39150000
opls_750-95    N    0.75282994    0.23244991    0.54450926    -0.33120000
opls_542-96    N    0.57363993    0.49041996    0.49777083    -0.39160000
opls_542-97    N    0.00258004    0.92579002    0.49775000    -0.39140000
opls_750-98    N    0.23244991    0.24717006    0.54450926    -0.33130000
opls_542-99    N    0.49041996    0.42636007    0.49777083    -0.39160000
opls_542-100    N    0.92579002    0.99741996    0.49775000    -0.39140000
opls_750-101    N    0.76755009    0.75282994    0.54450926    -0.33130000
opls_542-102    N    0.50958004    0.57363993    0.49777083    -0.39160000
opls_542-103    N    0.07420998    0.00258004    0.49775000    -0.39150000
opls_146-104    H    0.91381996    0.82100000    0.82021065    0.12140000
opls_146-105    H    0.85379002    0.75459002    0.80686111    0.09690000
opls_146-106    H    0.76649982    0.83686987    0.14809028    0.11870000
opls_146-107    H    0.82827985    0.90306987    0.15806019    0.11450000
opls_146-108    H    0.38485989    0.33660000    0.18865046    0.11850000
opls_146-109    H    0.31522994    0.27938004    0.22919907    0.11870000
opls_146-110    H    0.24480000    0.37742994    0.88159028    0.11650000
opls_146-111    H    0.31537006    0.43356007    0.84606019    0.09990000
opls_144-112    H    0.69964991    0.20285989    0.25211111    0.11980000
opls_547-113    H    0.31389982    0.47525989    0.29853009    0.11850000
opls_547-114    H    0.32686987    0.57049982    0.27737037    0.11810000
opls_547-115    H    0.94527985    0.17948983    0.29587963    0.11850000
opls_547-116    H    0.04140000    0.18247985    0.28158102    0.11810000
opls_146-117    H    0.08618004    0.17900000    0.82021065    0.12140000
opls_146-118    H    0.14620998    0.24540998    0.80686111    0.09690000
opls_146-119    H    0.23350018    0.16313013    0.14809028    0.11870000
opls_146-120    H    0.17172015    0.09693013    0.15806019    0.11440000
opls_146-121    H    0.61514011    0.66340000    0.18865046    0.11850000
opls_146-122    H    0.68477006    0.72061996    0.22919907    0.11870000
opls_146-123    H    0.75520000    0.62257006    0.88159028    0.11660000
opls_146-124    H    0.68462994    0.56643993    0.84606019    0.09990000
opls_144-125    H    0.30035009    0.79714011    0.25211111    0.11980000
opls_547-126    H    0.68609982    0.52474011    0.29853009    0.11850000
opls_547-127    H    0.67313013    0.42949982    0.27737037    0.11810000
opls_547-128    H    0.05472015    0.82051017    0.29587963    0.11850000
opls_547-129    H    0.95860000    0.81752015    0.28158102    0.11810000
opls_146-130    H    0.17900000    0.91381996    0.82021065    0.12140000
opls_146-131    H    0.24540998    0.85379002    0.80686111    0.09690000
opls_146-132    H    0.16313013    0.76649982    0.14809028    0.11870000
opls_146-133    H    0.09693013    0.82827985    0.15806019    0.11440000
opls_146-134    H    0.66340000    0.38485989    0.18865046    0.11850000
opls_146-135    H    0.72061996    0.31522994    0.22919907    0.11870000
opls_146-136    H    0.62257006    0.24480000    0.88159028    0.11650000
opls_146-137    H    0.56643993    0.31537006    0.84606019    0.09990000
opls_144-138    H    0.79714011    0.69964991    0.25211111    0.11980000
opls_547-139    H    0.52474011    0.31389982    0.29853009    0.11850000
opls_547-140    H    0.42949982    0.32686987    0.27737037    0.11810000
opls_547-141    H    0.82051017    0.94527985    0.29587963    0.11850000
opls_547-142    H    0.81752015    0.04140000    0.28158102    0.11810000
opls_146-143    H    0.82100000    0.08618004    0.82021065    0.12140000
opls_146-144    H    0.75459002    0.14620998    0.80686111    0.09700000
opls_146-145    H    0.83686987    0.23350018    0.14809028    0.11870000
opls_146-146    H    0.90306987    0.17172015    0.15806019    0.11440000
opls_146-147    H    0.33660000    0.61514011    0.18865046    0.11850000
opls_146-148    H    0.27938004    0.68477006    0.22919907    0.11870000
opls_146-149    H    0.37742994    0.75520000    0.88159028    0.11650000
opls_146-150    H    0.43356007    0.68462994    0.84606019    0.09990000
opls_144-151    H    0.20285989    0.30035009    0.25211111    0.11980000
opls_547-152    H    0.47525989    0.68609982    0.29853009    0.11860000
opls_547-153    H    0.57049982    0.67313013    0.27737037    0.11810000
opls_547-154    H    0.17948983    0.05472015    0.29587963    0.11850000
opls_547-155    H    0.18247985    0.95860000    0.28158102    0.11810000
Zn2+-156    Zn    0.50000000    0.50000000    0.50000000    0.69160000
Zn2+-157    Zn    0.00000000    0.00000000    0.50000000    0.69150000
