#======================================================================
# Crystal Data Generated By AuToFF
#----------------------------------------------------------------------

data_AuToFF_phase_1

_cell_length_a                         31.9530
_cell_length_b                         31.9530
_cell_length_c                         31.9530
_cell_angle_alpha                      90.00
_cell_angle_beta                       90.00
_cell_angle_gamma                      90.00
_symmetry_space_group_name_H-M_alt     'P 1'
_symmetry_space_group_IT_number        1

loop_
_space_group_symop_operation_xyz
   'x, y, z'

loop_
   _atom_site_label
   _atom_site_type_symbol
   _atom_site_fract_x
   _atom_site_fract_y
   _atom_site_fract_z
   _atom_site_charge
opls_145-0    C    0.42945013    0.42945013    0.09393985    -0.21970000
opls_145-1    C    0.57054987    0.57054987    0.09393985    -0.21970000
opls_145-2    C    0.57054987    0.42945013    0.90606015    -0.21970000
opls_145-3    C    0.42945013    0.57054987    0.90606015    -0.21970000
opls_145-4    C    0.09393985    0.42945013    0.42945013    -0.21970000
opls_145-5    C    0.09393985    0.57054987    0.57054987    -0.21970000
opls_145-6    C    0.90606015    0.57054987    0.42945013    -0.21970000
opls_145-7    C    0.90606015    0.42945013    0.57054987    -0.21970000
opls_145-8    C    0.42945013    0.09393985    0.42945013    -0.21970000
opls_145-9    C    0.57054987    0.09393985    0.57054987    -0.21970000
opls_145-10    C    0.42945013    0.90606015    0.57054987    -0.21970000
opls_145-11    C    0.57054987    0.90606015    0.42945013    -0.21970000
opls_145-12    C    0.46750008    0.41409007    0.07784997    -0.05130000
opls_145-13    C    0.53249992    0.58590993    0.07784997    -0.05210000
opls_145-14    C    0.53249992    0.41409007    0.92215003    -0.05130000
opls_145-15    C    0.46750008    0.58590993    0.92215003    -0.05210000
opls_145-16    C    0.07784997    0.46750008    0.41409007    -0.05130000
opls_145-17    C    0.07784997    0.53249992    0.58590993    -0.05210000
opls_145-18    C    0.92215003    0.53249992    0.41409007    -0.05130000
opls_145-19    C    0.92215003    0.46750008    0.58590993    -0.05210000
opls_145-20    C    0.41409007    0.07784997    0.46750008    -0.05130000
opls_145-21    C    0.58590993    0.07784997    0.53249992    -0.05210000
opls_145-22    C    0.41409007    0.92215003    0.53249992    -0.05130000
opls_145-23    C    0.58590993    0.92215003    0.46750008    -0.05210000
opls_145-24    C    0.41409007    0.46750008    0.07784997    -0.05130000
opls_145-25    C    0.58590993    0.53249992    0.07784997    -0.05210000
opls_145-26    C    0.41409007    0.53249992    0.92215003    -0.05130000
opls_145-27    C    0.58590993    0.46750008    0.92215003    -0.05210000
opls_145-28    C    0.46750008    0.07784997    0.41409007    -0.05130000
opls_145-29    C    0.53249992    0.07784997    0.58590993    -0.05210000
opls_145-30    C    0.53249992    0.92215003    0.41409007    -0.05130000
opls_145-31    C    0.46750008    0.92215003    0.58590993    -0.05210000
opls_145-32    C    0.07784997    0.41409007    0.46750008    -0.05130000
opls_145-33    C    0.07784997    0.58590993    0.53249992    -0.05210000
opls_145-34    C    0.92215003    0.41409007    0.53249992    -0.05130000
opls_145-35    C    0.92215003    0.58590993    0.46750008    -0.05210000
opls_145-36    C    0.48909993    0.43570995    0.04678997    -0.12490000
opls_145-37    C    0.51090007    0.56429005    0.04678997    -0.12490000
opls_145-38    C    0.51090007    0.43570995    0.95321003    -0.12490000
opls_145-39    C    0.48909993    0.56429005    0.95321003    -0.12490000
opls_145-40    C    0.04678997    0.48909993    0.43570995    -0.12490000
opls_145-41    C    0.04678997    0.51090007    0.56429005    -0.12490000
opls_145-42    C    0.95321003    0.51090007    0.43570995    -0.12490000
opls_145-43    C    0.95321003    0.48909993    0.56429005    -0.12490000
opls_145-44    C    0.43570995    0.04678997    0.48909993    -0.12490000
opls_145-45    C    0.56429005    0.04678997    0.51090007    -0.12490000
opls_145-46    C    0.43570995    0.95321003    0.51090007    -0.12490000
opls_145-47    C    0.56429005    0.95321003    0.48909993    -0.12490000
opls_145-48    C    0.43570995    0.48909993    0.04678997    -0.12490000
opls_145-49    C    0.56429005    0.51090007    0.04678997    -0.12490000
opls_145-50    C    0.43570995    0.51090007    0.95321003    -0.12490000
opls_145-51    C    0.56429005    0.48909993    0.95321003    -0.12490000
opls_145-52    C    0.48909993    0.04678997    0.43570995    -0.12490000
opls_145-53    C    0.51090007    0.04678997    0.56429005    -0.12490000
opls_145-54    C    0.51090007    0.95321003    0.43570995    -0.12490000
opls_145-55    C    0.48909993    0.95321003    0.56429005    -0.12490000
opls_145-56    C    0.04678997    0.43570995    0.48909993    -0.12490000
opls_145-57    C    0.04678997    0.56429005    0.51090007    -0.12490000
opls_145-58    C    0.95321003    0.43570995    0.51090007    -0.12490000
opls_145-59    C    0.95321003    0.56429005    0.48909993    -0.12490000
opls_700-60    C    0.47348011    0.47348011    0.03051012    0.06790000
opls_700-61    C    0.52651989    0.52651989    0.03051012    0.06790000
opls_700-62    C    0.52651989    0.47348011    0.96948988    0.06790000
opls_700-63    C    0.47348011    0.52651989    0.96948988    0.06790000
opls_700-64    C    0.03051012    0.47348011    0.47348011    0.06790000
opls_700-65    C    0.03051012    0.52651989    0.52651989    0.06790000
opls_700-66    C    0.96948988    0.52651989    0.47348011    0.06790000
opls_700-67    C    0.96948988    0.47348011    0.52651989    0.06790000
opls_700-68    C    0.47348011    0.03051012    0.47348011    0.06790000
opls_700-69    C    0.52651989    0.03051012    0.52651989    0.06790000
opls_700-70    C    0.47348011    0.96948988    0.52651989    0.06790000
opls_700-71    C    0.52651989    0.96948988    0.47348011    0.06790000
opls_701-72    C    0.50000000    0.50000000    0.00000000    0.01440000
opls_701-73    C    0.00000000    0.50000000    0.50000000    0.01440000
opls_701-74    C    0.50000000    0.00000000    0.50000000    0.01440000
opls_166-75    C    0.63913999    0.60819986    0.17946985    0.17650000
opls_166-76    C    0.36086001    0.39180014    0.17946985    0.17660000
opls_166-77    C    0.36086001    0.60819986    0.82053015    0.17660000
opls_166-78    C    0.63913999    0.39180014    0.82053015    0.17650000
opls_166-79    C    0.17946985    0.63913999    0.60819986    0.17650000
opls_166-80    C    0.17946985    0.36086001    0.39180014    0.17660000
opls_166-81    C    0.82053015    0.36086001    0.60819986    0.17660000
opls_166-82    C    0.82053015    0.63913999    0.39180014    0.17650000
opls_166-83    C    0.60819986    0.17946985    0.63913999    0.17650000
opls_166-84    C    0.39180014    0.17946985    0.36086001    0.17660000
opls_166-85    C    0.60819986    0.82053015    0.36086001    0.17660000
opls_166-86    C    0.39180014    0.82053015    0.63913999    0.17650000
opls_166-87    C    0.60819986    0.63913999    0.17946985    0.17650000
opls_166-88    C    0.39180014    0.36086001    0.17946985    0.17660000
opls_166-89    C    0.60819986    0.36086001    0.82053015    0.17660000
opls_166-90    C    0.39180014    0.63913999    0.82053015    0.17650000
opls_166-91    C    0.63913999    0.17946985    0.60819986    0.17650000
opls_166-92    C    0.36086001    0.17946985    0.39180014    0.17660000
opls_166-93    C    0.36086001    0.82053015    0.60819986    0.17660000
opls_166-94    C    0.63913999    0.82053015    0.39180014    0.17650000
opls_166-95    C    0.17946985    0.60819986    0.63913999    0.17650000
opls_166-96    C    0.17946985    0.39180014    0.36086001    0.17660000
opls_166-97    C    0.82053015    0.60819986    0.36086001    0.17660000
opls_166-98    C    0.82053015    0.39180014    0.63913999    0.17650000
opls_145-99    C    0.67176009    0.60840015    0.20789003    -0.22720000
opls_145-100    C    0.32824993    0.39159985    0.20789003    -0.22720000
opls_145-101    C    0.32824993    0.60840015    0.79210997    -0.22720000
opls_145-102    C    0.67176009    0.39159985    0.79210997    -0.22720000
opls_145-103    C    0.20789003    0.67176009    0.60840015    -0.22720000
opls_145-104    C    0.20789003    0.32824993    0.39159985    -0.22720000
opls_145-105    C    0.79210997    0.32824993    0.60840015    -0.22720000
opls_145-106    C    0.79210997    0.67176009    0.39159985    -0.22720000
opls_145-107    C    0.60840015    0.20789003    0.67176009    -0.22720000
opls_145-108    C    0.39159985    0.20789003    0.32824993    -0.22720000
opls_145-109    C    0.60840015    0.79210997    0.32824993    -0.22720000
opls_145-110    C    0.39159985    0.79210997    0.67176009    -0.22720000
opls_145-111    C    0.60840015    0.67176009    0.20789003    -0.22720000
opls_145-112    C    0.39159985    0.32824993    0.20789003    -0.22720000
opls_145-113    C    0.60840015    0.32824993    0.79210997    -0.22720000
opls_145-114    C    0.39159985    0.67176009    0.79210997    -0.22720000
opls_145-115    C    0.67176009    0.20789003    0.60840015    -0.22720000
opls_145-116    C    0.32824993    0.20789003    0.39159985    -0.22720000
opls_145-117    C    0.32824993    0.79210997    0.60840015    -0.22720000
opls_145-118    C    0.67176009    0.79210997    0.39159985    -0.22720000
opls_145-119    C    0.20789003    0.60840015    0.67176009    -0.22720000
opls_145-120    C    0.20789003    0.39159985    0.32824993    -0.22720000
opls_145-121    C    0.79210997    0.60840015    0.32824993    -0.22720000
opls_145-122    C    0.79210997    0.39159985    0.67176009    -0.22730000
opls_261-123    C    0.70504992    0.64186993    0.26789003    -0.09530000
opls_261-124    C    0.29496010    0.35813007    0.26789003    -0.09530000
opls_261-125    C    0.29496010    0.64186993    0.73210997    -0.09870000
opls_261-126    C    0.70504992    0.35813007    0.73210997    -0.09870000
opls_261-127    C    0.26789003    0.70504992    0.64186993    -0.09530000
opls_261-128    C    0.26789003    0.29496010    0.35813007    -0.09530000
opls_261-129    C    0.73210997    0.29496010    0.64186993    -0.09870000
opls_261-130    C    0.73210997    0.70504992    0.35813007    -0.09870000
opls_261-131    C    0.64186993    0.26789003    0.70504992    -0.09530000
opls_261-132    C    0.35813007    0.26789003    0.29496010    -0.09530000
opls_261-133    C    0.64186993    0.73210997    0.29496010    -0.09870000
opls_261-134    C    0.35813007    0.73210997    0.70504992    -0.09870000
opls_261-135    C    0.64186993    0.70504992    0.26789003    -0.09530000
opls_261-136    C    0.35813007    0.29496010    0.26789003    -0.09530000
opls_261-137    C    0.64186993    0.29496010    0.73210997    -0.09870000
opls_261-138    C    0.35813007    0.70504992    0.73210997    -0.09870000
opls_261-139    C    0.70504992    0.26789003    0.64186993    -0.09530000
opls_261-140    C    0.29496010    0.26789003    0.35813007    -0.09540000
opls_261-141    C    0.29496010    0.73210997    0.64186993    -0.09870000
opls_261-142    C    0.70504992    0.73210997    0.35813007    -0.09870000
opls_261-143    C    0.26789003    0.64186993    0.70504992    -0.09530000
opls_261-144    C    0.26789003    0.35813007    0.29496010    -0.09530000
opls_261-145    C    0.73210997    0.64186993    0.29496010    -0.09870000
opls_261-146    C    0.73210997    0.35813007    0.70504992    -0.09870000
opls_700-147    C    0.67292993    0.64117016    0.23752011    0.08750000
opls_700-148    C    0.32707007    0.35882984    0.23752011    0.09320000
opls_700-149    C    0.32707007    0.64117016    0.76247989    0.09320000
opls_700-150    C    0.67292993    0.35882984    0.76247989    0.08760000
opls_700-151    C    0.23752011    0.67292993    0.64117016    0.08760000
opls_700-152    C    0.23752011    0.32707007    0.35882984    0.09320000
opls_700-153    C    0.76247989    0.32707007    0.64117016    0.09320000
opls_700-154    C    0.76247989    0.67292993    0.35882984    0.08760000
opls_700-155    C    0.64117016    0.23752011    0.67292993    0.08760000
opls_700-156    C    0.35882984    0.23752011    0.32707007    0.09320000
opls_700-157    C    0.64117016    0.76247989    0.32707007    0.09320000
opls_700-158    C    0.35882984    0.76247989    0.67292993    0.08760000
opls_700-159    C    0.64117016    0.67292993    0.23752011    0.08760000
opls_700-160    C    0.35882984    0.32707007    0.23752011    0.09320000
opls_700-161    C    0.64117016    0.32707007    0.76247989    0.09320000
opls_700-162    C    0.35882984    0.67292993    0.76247989    0.08760000
opls_700-163    C    0.67292993    0.23752011    0.64117016    0.08760000
opls_700-164    C    0.32707007    0.23752011    0.35882984    0.09320000
opls_700-165    C    0.32707007    0.76247989    0.64117016    0.09320000
opls_700-166    C    0.67292993    0.76247989    0.35882984    0.08760000
opls_700-167    C    0.23752011    0.64117016    0.67292993    0.08760000
opls_700-168    C    0.23752011    0.35882984    0.32707007    0.09320000
opls_700-169    C    0.76247989    0.64117016    0.32707007    0.09320000
opls_700-170    C    0.76247989    0.35882984    0.67292993    0.08760000
opls_146-171    H    0.48123995    0.42338998    0.96469001    0.11050000
opls_146-172    H    0.51876005    0.57661002    0.96469001    0.11050000
opls_146-173    H    0.51876005    0.42338998    0.03530999    0.11050000
opls_146-174    H    0.48123995    0.57661002    0.03530999    0.11050000
opls_146-175    H    0.96469001    0.48123995    0.42338998    0.11050000
opls_146-176    H    0.96469001    0.51876005    0.57661002    0.11050000
opls_146-177    H    0.03530999    0.51876005    0.42338998    0.11050000
opls_146-178    H    0.03530999    0.48123995    0.57661002    0.11050000
opls_146-179    H    0.42338998    0.96469001    0.48123995    0.11050000
opls_146-180    H    0.57661002    0.96469001    0.51876005    0.11050000
opls_146-181    H    0.42338998    0.03530999    0.51876005    0.11050000
opls_146-182    H    0.57661002    0.03530999    0.48123995    0.11050000
opls_146-183    H    0.42338998    0.48123995    0.96469001    0.11050000
opls_146-184    H    0.57661002    0.51876005    0.96469001    0.11050000
opls_146-185    H    0.42338998    0.51876005    0.03530999    0.11050000
opls_146-186    H    0.57661002    0.48123995    0.03530999    0.11050000
opls_146-187    H    0.48123995    0.96469001    0.42338998    0.11050000
opls_146-188    H    0.51876005    0.96469001    0.57661002    0.11040000
opls_146-189    H    0.51876005    0.03530999    0.42338998    0.11050000
opls_146-190    H    0.48123995    0.03530999    0.57661002    0.11050000
opls_146-191    H    0.96469001    0.42338998    0.48123995    0.11050000
opls_146-192    H    0.96469001    0.57661002    0.51876005    0.11050000
opls_146-193    H    0.03530999    0.42338998    0.51876005    0.11050000
opls_146-194    H    0.03530999    0.57661002    0.48123995    0.11050000
opls_146-195    H    0.38497011    0.48039996    0.09010985    0.11070000
opls_146-196    H    0.61503990    0.51960004    0.09010985    0.11080000
opls_146-197    H    0.61503990    0.48039996    0.90989015    0.11090000
opls_146-198    H    0.38497011    0.51960004    0.90989015    0.11080000
opls_146-199    H    0.09010985    0.38497011    0.48039996    0.11080000
opls_146-200    H    0.09010985    0.61503990    0.51960004    0.11090000
opls_146-201    H    0.90989015    0.61503990    0.48039996    0.11090000
opls_146-202    H    0.90989015    0.38497011    0.51960004    0.11080000
opls_146-203    H    0.48039996    0.09010985    0.38497011    0.11080000
opls_146-204    H    0.51960004    0.09010985    0.61503990    0.11090000
opls_146-205    H    0.48039996    0.90989015    0.61503990    0.11090000
opls_146-206    H    0.51960004    0.90989015    0.38497011    0.11080000
opls_146-207    H    0.48039996    0.38497011    0.09010985    0.11080000
opls_146-208    H    0.51960004    0.61503990    0.09010985    0.11090000
opls_146-209    H    0.48039996    0.61503990    0.90989015    0.11090000
opls_146-210    H    0.51960004    0.38497011    0.90989015    0.11080000
opls_146-211    H    0.38497011    0.09010985    0.48039996    0.11080000
opls_146-212    H    0.61503990    0.09010985    0.51960004    0.11090000
opls_146-213    H    0.61503990    0.90989015    0.48039996    0.11090000
opls_146-214    H    0.38497011    0.90989015    0.51960004    0.11080000
opls_146-215    H    0.09010985    0.48039996    0.38497011    0.11080000
opls_146-216    H    0.09010985    0.51960004    0.61503990    0.11090000
opls_146-217    H    0.90989015    0.48039996    0.61503990    0.11090000
opls_146-218    H    0.90989015    0.51960004    0.38497011    0.11070000
opls_146-219    H    0.69563985    0.58417989    0.20797014    0.11590000
opls_146-220    H    0.30436015    0.41582011    0.20797014    0.11650000
opls_146-221    H    0.30436015    0.58417989    0.79202986    0.11650000
opls_146-222    H    0.69563985    0.41582011    0.79202986    0.11590000
opls_146-223    H    0.20797014    0.69563985    0.58417989    0.11590000
opls_146-224    H    0.20797014    0.30436015    0.41582011    0.11650000
opls_146-225    H    0.79202986    0.30436015    0.58417989    0.11650000
opls_146-226    H    0.79202986    0.69563985    0.41582011    0.11590000
opls_146-227    H    0.58417989    0.20797014    0.69563985    0.11590000
opls_146-228    H    0.41582011    0.20797014    0.30436015    0.11650000
opls_146-229    H    0.58417989    0.79202986    0.30436015    0.11650000
opls_146-230    H    0.41582011    0.79202986    0.69563985    0.11590000
opls_146-231    H    0.58417989    0.69563985    0.20797014    0.11590000
opls_146-232    H    0.41582011    0.30436015    0.20797014    0.11650000
opls_146-233    H    0.58417989    0.30436015    0.79202986    0.11650000
opls_146-234    H    0.41582011    0.69563985    0.79202986    0.11590000
opls_146-235    H    0.69563985    0.20797014    0.58417989    0.11580000
opls_146-236    H    0.30436015    0.20797014    0.41582011    0.11650000
opls_146-237    H    0.30436015    0.79202986    0.58417989    0.11650000
opls_146-238    H    0.69563985    0.79202986    0.41582011    0.11590000
opls_146-239    H    0.20797014    0.58417989    0.69563985    0.11590000
opls_146-240    H    0.20797014    0.41582011    0.30436015    0.11650000
opls_146-241    H    0.79202986    0.58417989    0.30436015    0.11650000
opls_146-242    H    0.79202986    0.41582011    0.69563985    0.11590000
opls_167-243    O    0.63075987    0.57946014    0.14837011    -0.32980000
opls_167-244    O    0.36924013    0.42053986    0.14837011    -0.32980000
opls_167-245    O    0.36924013    0.57946014    0.85162989    -0.32980000
opls_167-246    O    0.63075987    0.42053986    0.85162989    -0.32980000
opls_167-247    O    0.14837011    0.63075987    0.57946014    -0.32980000
opls_167-248    O    0.14837011    0.36924013    0.42053986    -0.32980000
opls_167-249    O    0.85162989    0.36924013    0.57946014    -0.32990000
opls_167-250    O    0.85162989    0.63075987    0.42053986    -0.32980000
opls_167-251    O    0.57946014    0.14837011    0.63075987    -0.32980000
opls_167-252    O    0.42053986    0.14837011    0.36924013    -0.32980000
opls_167-253    O    0.57946014    0.85162989    0.36924013    -0.32980000
opls_167-254    O    0.42053986    0.85162989    0.63075987    -0.32980000
opls_167-255    O    0.57946014    0.63075987    0.14837011    -0.32980000
opls_167-256    O    0.42053986    0.36924013    0.14837011    -0.32980000
opls_167-257    O    0.57946014    0.36924013    0.85162989    -0.32980000
opls_167-258    O    0.42053986    0.63075987    0.85162989    -0.32980000
opls_167-259    O    0.63075987    0.14837011    0.57946014    -0.32980000
opls_167-260    O    0.36924013    0.14837011    0.42053986    -0.32990000
opls_167-261    O    0.36924013    0.85162989    0.57946014    -0.32980000
opls_167-262    O    0.63075987    0.85162989    0.42053986    -0.32980000
opls_167-263    O    0.14837011    0.57946014    0.63075987    -0.32980000
opls_167-264    O    0.14837011    0.42053986    0.36924013    -0.32980000
opls_167-265    O    0.85162989    0.57946014    0.36924013    -0.32980000
opls_167-266    O    0.85162989    0.42053986    0.63075987    -0.32980000
MOF2_B_2-267    B    0.59351986    0.59351986    0.12949989    0.60050000
MOF2_B_2-268    B    0.40648014    0.40648014    0.12949989    0.60050000
MOF2_B_2-269    B    0.40648014    0.59351986    0.87050011    0.60050000
MOF2_B_2-270    B    0.59351986    0.40648014    0.87050011    0.60040000
MOF2_B_2-271    B    0.12949989    0.59351986    0.59351986    0.60050000
MOF2_B_2-272    B    0.12949989    0.40648014    0.40648014    0.60050000
MOF2_B_2-273    B    0.87050011    0.40648014    0.59351986    0.60050000
MOF2_B_2-274    B    0.87050011    0.59351986    0.40648014    0.60050000
MOF2_B_2-275    B    0.59351986    0.12949989    0.59351986    0.60050000
MOF2_B_2-276    B    0.40648014    0.12949989    0.40648014    0.60040000
MOF2_B_2-277    B    0.59351986    0.87050011    0.40648014    0.60050000
MOF2_B_2-278    B    0.40648014    0.87050011    0.59351986    0.60050000
