#======================================================================
# Crystal Data Generated By AuToFF
#----------------------------------------------------------------------

data_AuToFF_phase_1

_cell_length_a                         43.6500
_cell_length_b                         43.6500
_cell_length_c                         3.5200
_cell_angle_alpha                      90.00
_cell_angle_beta                       90.00
_cell_angle_gamma                      120.00
_symmetry_space_group_name_H-M_alt     'P 1'
_symmetry_space_group_IT_number        1

loop_
_space_group_symop_operation_xyz
   'x, y, z'

loop_
   _atom_site_label
   _atom_site_type_symbol
   _atom_site_fract_x
   _atom_site_fract_y
   _atom_site_fract_z
   _atom_site_charge
opls_140-0    H    0.56538005    0.58055987    0.72590057    0.17830000
opls_140-1    H    0.41944009    0.98481007    0.72590057    0.17810000
opls_140-2    H    0.01518996    0.43462001    0.72590057    0.17810000
opls_140-3    H    0.43461982    0.41943987    0.72590057    0.17830000
opls_140-4    H    0.58057000    0.01518993    0.72590057    0.17810000
opls_140-5    H    0.98481004    0.56537999    0.72590057    0.17810000
opls_140-6    H    0.43461982    0.41943987    0.27409943    0.17830000
opls_140-7    H    0.58057000    0.01518993    0.27409943    0.17810000
opls_140-8    H    0.98481004    0.56537999    0.27409943    0.17810000
opls_140-9    H    0.56538005    0.58055987    0.27409943    0.17830000
opls_140-10    H    0.41944009    0.98481007    0.27409943    0.17810000
opls_140-11    H    0.01518996    0.43462001    0.27409943    0.17810000
opls_146-12    H    0.41089985    0.47399993    0.50000000    0.04490000
opls_146-13    H    0.32380012    0.57700001    0.50000000    0.04550000
opls_146-14    H    0.35680004    0.54499986    0.50000000    0.04490000
opls_146-15    H    0.47400011    0.41090011    0.50000000    0.04490000
opls_146-16    H    0.57700010    0.32379998    0.50000000    0.04550000
opls_146-17    H    0.54500004    0.35680007    0.50000000    0.04490000
opls_146-18    H    0.30055002    0.60110005    0.50000000    0.04490000
opls_140-19    H    0.59141010    0.57027999    0.50000000    0.17730000
opls_146-20    H    0.52600002    0.93689992    0.50000000    0.04490000
opls_146-21    H    0.42299999    0.74679997    0.50000000    0.04550000
opls_146-22    H    0.45500009    0.81179995    0.50000000    0.04490000
opls_146-23    H    0.58910010    0.06310008    0.50000000    0.04490000
opls_146-24    H    0.67620001    0.25320003    0.50000000    0.04550000
opls_146-25    H    0.64320014    0.18820005    0.50000000    0.04490000
opls_146-26    H    0.39890008    0.69945011    0.50000000    0.04490000
opls_140-27    H    0.42972000    0.02113988    0.50000000    0.12400000
opls_146-28    H    0.06310000    0.58909989    0.50000000    0.04490000
opls_146-29    H    0.25320013    0.67620002    0.50000000    0.04550000
opls_146-30    H    0.18819996    0.64319993    0.50000000    0.04490000
opls_146-31    H    0.93690015    0.52600007    0.50000000    0.04490000
opls_146-32    H    0.74680011    0.42299999    0.50000000    0.04550000
opls_146-33    H    0.81180005    0.45499988    0.50000000    0.04490000
opls_146-34    H    0.30055003    0.69945011    0.50000000    0.04490000
opls_140-35    H    0.97885991    0.40858991    0.50000000    0.17730000
opls_146-36    H    0.58910015    0.52600007    0.50000000    0.04490000
opls_146-37    H    0.67619988    0.42299999    0.50000000    0.04550000
opls_146-38    H    0.64320005    0.45499988    0.50000000    0.04490000
opls_146-39    H    0.52599989    0.58909989    0.50000000    0.04490000
opls_146-40    H    0.42299990    0.67620002    0.50000000    0.04550000
opls_146-41    H    0.45499996    0.64319993    0.50000000    0.04490000
opls_146-42    H    0.69944998    0.39889995    0.50000000    0.04490000
opls_140-43    H    0.40858990    0.42972001    0.50000000    0.17730000
opls_146-44    H    0.47399998    0.06310008    0.50000000    0.04490000
opls_146-45    H    0.57700001    0.25320003    0.50000000    0.04550000
opls_146-46    H    0.54500014    0.18820005    0.50000000    0.04490000
opls_146-47    H    0.41089990    0.93689992    0.50000000    0.04490000
opls_146-48    H    0.32379999    0.74679997    0.50000000    0.04550000
opls_146-49    H    0.35679986    0.81179995    0.50000000    0.04490000
opls_146-50    H    0.60109992    0.30054989    0.50000000    0.04490000
opls_140-51    H    0.57028000    0.97886012    0.50000000    0.12400000
opls_146-52    H    0.93690000    0.41090011    0.50000000    0.04490000
opls_146-53    H    0.74680010    0.32379998    0.50000000    0.04550000
opls_146-54    H    0.81180004    0.35680007    0.50000000    0.04490000
opls_146-55    H    0.06310008    0.47399993    0.50000000    0.04490000
opls_146-56    H    0.25319989    0.57700001    0.50000000    0.04550000
opls_146-57    H    0.18819981    0.54499986    0.50000000    0.04490000
opls_146-58    H    0.69944997    0.30054989    0.50000000    0.04490000
opls_140-59    H    0.02114009    0.59141009    0.50000000    0.17730000
opls_148-60    C    0.56449988    0.56449988    0.50000000    -0.36700000
opls_145-61    C    0.53129997    0.53130006    0.50000000    0.11290000
opls_166-62    C    0.43779999    0.53070009    0.50000000    0.19390000
opls_147-63    C    0.46860005    0.49979988    0.50000000    0.00200000
opls_145-64    C    0.43729999    0.49989987    0.50000000    -0.17650000
opls_145-65    C    0.35389992    0.59289995    0.50000000    -0.15480000
opls_145-66    C    0.37180005    0.57520010    0.50000000    -0.10580000
opls_166-67    C    0.53070000    0.43780000    0.50000000    0.19390000
opls_147-68    C    0.49979986    0.46859995    0.50000000    0.00200000
opls_145-69    C    0.49989996    0.43730003    0.50000000    -0.17650000
opls_145-70    C    0.59290004    0.35389996    0.50000000    -0.15480000
opls_145-71    C    0.57519992    0.37180007    0.50000000    -0.10580000
opls_145-72    C    0.40730004    0.59269996    0.50000000    -0.22560000
opls_145-73    C    0.35155004    0.64844991    0.50000000    0.09330000
opls_145-74    C    0.37100006    0.62899989    0.50000000    0.10190000
opls_145-75    C    0.31565001    0.63130003    0.50000000    -0.08450000
opls_148-76    C    0.43550011    0.00000000    0.50000000    -0.36700000
opls_145-77    C    0.46870011    0.00000000    0.50000000    0.11290000
opls_166-78    C    0.46930001    0.90709991    0.50000000    0.19390000
opls_147-79    C    0.50020004    0.96880007    0.50000000    0.00200000
opls_145-80    C    0.50009994    0.93739989    0.50000000    -0.17650000
opls_145-81    C    0.40710001    0.76100001    0.50000000    -0.15480000
opls_145-82    C    0.42480010    0.79659997    0.50000000    -0.10580000
opls_166-83    C    0.56220010    0.09290009    0.50000000    0.19390000
opls_147-84    C    0.53139996    0.03119993    0.50000000    0.00200000
opls_145-85    C    0.56270006    0.06260011    0.50000000    -0.17650000
opls_145-86    C    0.64609999    0.23899999    0.50000000    -0.15480000
opls_145-87    C    0.62820013    0.20340003    0.50000000    -0.10580000
opls_145-88    C    0.40730004    0.81460007    0.50000000    -0.22560000
opls_145-89    C    0.35154996    0.70309991    0.50000000    0.09330000
opls_145-90    C    0.37099998    0.74199996    0.50000000    0.10190000
opls_145-91    C    0.36870001    0.68434985    0.50000000    -0.08450000
opls_148-92    C    0.99999987    0.43549986    0.50000000    -0.36700000
opls_145-93    C    0.99999992    0.46869994    0.50000000    0.11290000
opls_166-94    C    0.09290000    0.56220000    0.50000000    0.19390000
opls_147-95    C    0.03120014    0.53140005    0.50000000    0.00200000
opls_145-96    C    0.06259993    0.56269997    0.50000000    -0.17650000
opls_145-97    C    0.23900007    0.64610004    0.50000000    -0.15480000
opls_145-98    C    0.20339985    0.62819993    0.50000000    -0.10580000
opls_166-99    C    0.90709990    0.46929991    0.50000000    0.19390000
opls_147-100    C    0.96880004    0.50019986    0.50000000    0.00200000
opls_145-101    C    0.93739999    0.50009986    0.50000000    -0.17640000
opls_145-102    C    0.76099997    0.40710005    0.50000000    -0.15480000
opls_145-103    C    0.79659995    0.42479990    0.50000000    -0.10580000
opls_145-104    C    0.18539993    0.59269996    0.50000000    -0.22550000
opls_145-105    C    0.29689987    0.64844991    0.50000000    0.09330000
opls_145-106    C    0.25799983    0.62899989    0.50000000    0.10190000
opls_145-107    C    0.31564984    0.68434985    0.50000000    -0.08450000
opls_148-108    C    0.43549999    0.43549986    0.50000000    -0.36700000
opls_145-109    C    0.46870003    0.46869994    0.50000000    0.11290000
opls_166-110    C    0.56220001    0.46929991    0.50000000    0.19390000
opls_147-111    C    0.53140004    0.50019986    0.50000000    0.00200000
opls_145-112    C    0.56269987    0.50009986    0.50000000    -0.17650000
opls_145-113    C    0.64610008    0.40710005    0.50000000    -0.15480000
opls_145-114    C    0.62819995    0.42479990    0.50000000    -0.10580000
opls_166-115    C    0.46930000    0.56220000    0.50000000    0.19390000
opls_147-116    C    0.50019991    0.53140005    0.50000000    0.00200000
opls_145-117    C    0.50010004    0.56269997    0.50000000    -0.17650000
opls_145-118    C    0.40709996    0.64610004    0.50000000    -0.15480000
opls_145-119    C    0.42480008    0.62819993    0.50000000    -0.10580000
opls_145-120    C    0.59269996    0.40730004    0.50000000    -0.22560000
opls_145-121    C    0.64844996    0.35155009    0.50000000    0.09330000
opls_145-122    C    0.62900017    0.37100011    0.50000000    0.10190000
opls_145-123    C    0.68434999    0.36869997    0.50000000    -0.08450000
opls_148-124    C    0.56450011    0.00000000    0.50000000    -0.36680000
opls_145-125    C    0.53129989    0.00000000    0.50000000    0.11290000
opls_166-126    C    0.53069999    0.09290009    0.50000000    0.19390000
opls_147-127    C    0.49979996    0.03119993    0.50000000    0.00200000
opls_145-128    C    0.49990006    0.06260011    0.50000000    -0.17650000
opls_145-129    C    0.59289999    0.23899999    0.50000000    -0.15480000
opls_145-130    C    0.57520013    0.20340003    0.50000000    -0.10580000
opls_166-131    C    0.43779990    0.90709991    0.50000000    0.19390000
opls_147-132    C    0.46860004    0.96880007    0.50000000    0.00200000
opls_145-133    C    0.43729994    0.93739989    0.50000000    -0.17650000
opls_145-134    C    0.35390001    0.76100001    0.50000000    -0.15470000
opls_145-135    C    0.37179987    0.79659997    0.50000000    -0.10580000
opls_145-136    C    0.59269996    0.18539993    0.50000000    -0.22560000
opls_145-137    C    0.64845004    0.29690009    0.50000000    0.09330000
opls_145-138    C    0.62900002    0.25800004    0.50000000    0.10190000
opls_145-139    C    0.63129986    0.31564988    0.50000000    -0.08450000
opls_148-140    C    1.00000000    0.56449988    0.50000000    -0.36700000
opls_145-141    C    0.00000008    0.53130006    0.50000000    0.11300000
opls_166-142    C    0.90710000    0.43780000    0.50000000    0.19390000
opls_147-143    C    0.96879986    0.46859995    0.50000000    0.00200000
opls_145-144    C    0.93740007    0.43730003    0.50000000    -0.17650000
opls_145-145    C    0.76099993    0.35389996    0.50000000    -0.15480000
opls_145-146    C    0.79659992    0.37180007    0.50000000    -0.10580000
opls_166-147    C    0.09290010    0.53070009    0.50000000    0.19390000
opls_147-148    C    0.03119982    0.49979988    0.50000000    0.00200000
opls_145-149    C    0.06259988    0.49989987    0.50000000    -0.17650000
opls_145-150    C    0.23900003    0.59289995    0.50000000    -0.15480000
opls_145-151    C    0.20340005    0.57520010    0.50000000    -0.10580000
opls_145-152    C    0.81460007    0.40730004    0.50000000    -0.22560000
opls_145-153    C    0.70310013    0.35155009    0.50000000    0.09330000
opls_145-154    C    0.74200017    0.37100011    0.50000000    0.10190000
opls_145-155    C    0.68435003    0.31564988    0.50000000    -0.08450000
opls_167-156    O    0.41000017    0.53540010    0.50000000    -0.30210000
opls_167-157    O    0.53539995    0.40999989    0.50000000    -0.30220000
opls_167-158    O    0.46460014    0.87460005    0.50000000    -0.30220000
opls_167-159    O    0.59000009    0.12539995    0.50000000    -0.30220000
opls_167-160    O    0.12540005    0.59000011    0.50000000    -0.30220000
opls_167-161    O    0.87459983    0.46459990    0.50000000    -0.30220000
opls_167-162    O    0.58999983    0.46459990    0.50000000    -0.30220000
opls_167-163    O    0.46460005    0.59000011    0.50000000    -0.30220000
opls_167-164    O    0.53540009    0.12539995    0.50000000    -0.30220000
opls_167-165    O    0.40999991    0.87460005    0.50000000    -0.30220000
opls_167-166    O    0.87459995    0.40999989    0.50000000    -0.30220000
opls_167-167    O    0.12539994    0.53540010    0.50000000    -0.30220000
MOF2_B_2-168    B    0.42719998    0.57279996    0.50000000    0.62430000
MOF2_B_2-169    B    0.42720004    0.85440007    0.50000000    0.62440000
MOF2_B_2-170    B    0.14559998    0.57279996    0.50000000    0.62430000
MOF2_B_2-171    B    0.57280002    0.42720004    0.50000000    0.62430000
MOF2_B_2-172    B    0.57279996    0.14559993    0.50000000    0.62430000
MOF2_B_2-173    B    0.85440002    0.42720004    0.50000000    0.62430000
