#======================================================================
# Crystal Data Generated By AuToFF
#----------------------------------------------------------------------

data_AuToFF_phase_1

_cell_length_a                         30.3971
_cell_length_b                         30.3971
_cell_length_c                         3.4663
_cell_angle_alpha                      90.00
_cell_angle_beta                       90.00
_cell_angle_gamma                      120.00
_symmetry_space_group_name_H-M_alt     'P 1'
_symmetry_space_group_IT_number        1

loop_
_space_group_symop_operation_xyz
   'x, y, z'

loop_
   _atom_site_label
   _atom_site_type_symbol
   _atom_site_fract_x
   _atom_site_fract_y
   _atom_site_fract_z
   _atom_site_charge
opls_700-0    C    0.51219988    0.48346000    0.50000000    0.06750000
opls_145-1    C    0.48262997    0.42977003    0.50000000    -0.12120000
opls_145-2    C    0.50521015    0.39946005    0.50000000    -0.11110000
opls_700-3    C    0.55806011    0.42114998    0.50000000    0.13540000
opls_145-4    C    0.58805987    0.47431990    0.50000000    -0.10980000
opls_145-5    C    0.56562992    0.50480994    0.50000000    -0.12160000
opls_142-6    C    0.57950013    0.38662000    0.50000000    -0.16530000
opls_142-7    C    0.62930992    0.40189009    0.50000000    -0.19950000
opls_642-8    C    0.64835006    0.36586987    0.50000000    0.35220000
opls_700-9    C    0.51653993    0.02873997    0.50000000    0.06750000
opls_145-10    C    0.57022987    0.05285994    0.50000000    -0.12120000
opls_145-11    C    0.60054002    0.10574989    0.50000000    -0.11110000
opls_700-12    C    0.57885009    0.13691003    0.50000000    0.13540000
opls_145-13    C    0.52567991    0.11374012    0.50000000    -0.10980000
opls_145-14    C    0.49518994    0.06082016    0.50000000    -0.12160000
opls_142-15    C    0.61338009    0.19287998    0.50000000    -0.16530000
opls_142-16    C    0.59811008    0.22741984    0.50000000    -0.19950000
opls_642-17    C    0.63413011    0.28248000    0.50000000    0.35220000
opls_700-18    C    0.97125986    0.48780003    0.50000000    0.06750000
opls_145-19    C    0.94714016    0.51737002    0.50000000    -0.12120000
opls_145-20    C    0.89425016    0.49479006    0.50000000    -0.11110000
opls_700-21    C    0.86309013    0.44193999    0.50000000    0.13540000
opls_145-22    C    0.88625989    0.41193998    0.50000000    -0.10980000
opls_145-23    C    0.93917981    0.43436990    0.50000000    -0.12160000
opls_142-24    C    0.80712011    0.42050002    0.50000000    -0.16530000
opls_142-25    C    0.77258000    0.37069007    0.50000000    -0.19950000
opls_642-26    C    0.71752016    0.35165013    0.50000000    0.35220000
opls_700-27    C    0.48780012    0.51654000    0.50000000    0.06750000
opls_145-28    C    0.51737003    0.57022997    0.50000000    -0.12120000
opls_145-29    C    0.49478985    0.60053995    0.50000000    -0.11110000
opls_700-30    C    0.44193989    0.57885002    0.50000000    0.13540000
opls_145-31    C    0.41194013    0.52568010    0.50000000    -0.10980000
opls_145-32    C    0.43437008    0.49519006    0.50000000    -0.12160000
opls_142-33    C    0.42049987    0.61338000    0.50000000    -0.16530000
opls_142-34    C    0.37069008    0.59810991    0.50000000    -0.19950000
opls_642-35    C    0.35164994    0.63413013    0.50000000    0.35220000
opls_700-36    C    0.48346007    0.97126003    0.50000000    0.06750000
opls_145-37    C    0.42977013    0.94714006    0.50000000    -0.12120000
opls_145-38    C    0.39945998    0.89425011    0.50000000    -0.11110000
opls_700-39    C    0.42114991    0.86308997    0.50000000    0.13540000
opls_145-40    C    0.47432009    0.88625988    0.50000000    -0.10980000
opls_145-41    C    0.50481006    0.93917984    0.50000000    -0.12160000
opls_142-42    C    0.38661991    0.80712002    0.50000000    -0.16530000
opls_142-43    C    0.40188992    0.77258016    0.50000000    -0.19950000
opls_642-44    C    0.36586989    0.71752000    0.50000000    0.35220000
opls_700-45    C    0.02874014    0.51219997    0.50000000    0.06750000
opls_145-46    C    0.05285984    0.48262998    0.50000000    -0.12120000
opls_145-47    C    0.10574984    0.50520994    0.50000000    -0.11110000
opls_700-48    C    0.13690987    0.55806001    0.50000000    0.13540000
opls_145-49    C    0.11374011    0.58806002    0.50000000    -0.10980000
opls_145-50    C    0.06082019    0.56563010    0.50000000    -0.12160000
opls_142-51    C    0.19287989    0.57949998    0.50000000    -0.16530000
opls_142-52    C    0.22742000    0.62930993    0.50000000    -0.19950000
opls_642-53    C    0.28247984    0.64834987    0.50000000    0.35230000
opls_641-54    N    0.69906010    0.38403991    0.50000000    -0.40320000
opls_641-55    N    0.61595990    0.31501983    0.50000000    -0.40320000
opls_641-56    N    0.68497981    0.30093988    0.50000000    -0.40320000
opls_641-57    N    0.30093990    0.61596009    0.50000000    -0.40320000
opls_641-58    N    0.38404010    0.68498017    0.50000000    -0.40320000
opls_641-59    N    0.31502019    0.69906012    0.50000000    -0.40310000
opls_146-60    H    0.44180999    0.40978991    0.50000000    0.10290000
opls_146-61    H    0.48099990    0.35855012    0.50000000    0.12620000
opls_146-62    H    0.62897998    0.49316003    0.50000000    0.12260000
opls_146-63    H    0.59142004    0.54511017    0.50000000    0.10290000
opls_144-64    H    0.55260000    0.34614996    0.50000000    0.12210000
opls_144-65    H    0.65777997    0.44157000    0.50000000    0.09880000
opls_146-66    H    0.59020992    0.03202017    0.50000000    0.10290000
opls_146-67    H    0.64145000    0.12244982    0.50000000    0.12620000
opls_146-68    H    0.50684012    0.13582018    0.50000000    0.12260000
opls_146-69    H    0.45489003    0.04631019    0.50000000    0.10290000
opls_144-70    H    0.65384997    0.20645015    0.50000000    0.12370000
opls_144-71    H    0.55842978    0.21620982    0.50000000    0.09880000
opls_146-72    H    0.96798009    0.55818993    0.50000000    0.10290000
opls_146-73    H    0.87755010    0.51900006    0.50000000    0.12620000
opls_146-74    H    0.86418009    0.37102018    0.50000000    0.12260000
opls_146-75    H    0.95369012    0.40858002    0.50000000    0.10290000
opls_144-76    H    0.79355003    0.44739989    0.50000000    0.12370000
opls_144-77    H    0.78379025    0.34222018    0.50000000    0.09880000
opls_146-78    H    0.55819001    0.59021009    0.50000000    0.10290000
opls_146-79    H    0.51899978    0.64144988    0.50000000    0.12620000
opls_146-80    H    0.37102002    0.50683997    0.50000000    0.12260000
opls_146-81    H    0.40857996    0.45488983    0.50000000    0.10290000
opls_144-82    H    0.44740000    0.65385004    0.50000000    0.12210000
opls_144-83    H    0.34222003    0.55843000    0.50000000    0.09880000
opls_146-84    H    0.40979027    0.96798021    0.50000000    0.10290000
opls_146-85    H    0.35855000    0.87755018    0.50000000    0.12620000
opls_146-86    H    0.49316007    0.86418020    0.50000000    0.12260000
opls_146-87    H    0.54511016    0.95369019    0.50000000    0.10290000
opls_144-88    H    0.34615003    0.79354985    0.50000000    0.12370000
opls_144-89    H    0.44157022    0.78379018    0.50000000    0.09880000
opls_146-90    H    0.03201991    0.44181007    0.50000000    0.10290000
opls_146-91    H    0.12244990    0.48099994    0.50000000    0.12620000
opls_146-92    H    0.13582010    0.62898020    0.50000000    0.12260000
opls_146-93    H    0.04630988    0.59141998    0.50000000    0.10290000
opls_144-94    H    0.20644997    0.55260011    0.50000000    0.12370000
opls_144-95    H    0.21620994    0.65778020    0.50000000    0.09880000
