#======================================================================
# Crystal Data Generated By AuToFF
#----------------------------------------------------------------------

data_AuToFF_phase_1

_cell_length_a                         26.0622
_cell_length_b                         26.8979
_cell_length_c                         4.1258
_cell_angle_alpha                      109.56
_cell_angle_beta                       86.84
_cell_angle_gamma                      95.66
_symmetry_space_group_name_H-M_alt     'P 1'
_symmetry_space_group_IT_number        1

loop_
_space_group_symop_operation_xyz
   'x, y, z'

loop_
   _atom_site_label
   _atom_site_type_symbol
   _atom_site_fract_x
   _atom_site_fract_y
   _atom_site_fract_z
   _atom_site_charge
opls_700-0    C    0.53716002    0.60919001    0.00663054    0.02880000
opls_700-1    C    0.50255999    0.56321001    0.95769009    0.02960000
opls_145-2    C    0.41623995    0.51877022    0.85919168    -0.12630000
opls_700-3    C    0.52040991    0.66187020    0.02840044    0.06470000
opls_145-4    C    0.55095986    0.69452009    0.87597001    -0.12070000
opls_145-5    C    0.53739021    0.74506011    0.91147956    -0.12070000
opls_700-6    C    0.49243994    0.76391996    0.09604123    0.06050000
opls_145-7    C    0.46211022    0.73186984    0.25217931    -0.12430000
opls_145-8    C    0.47646989    0.68180987    0.22435007    -0.13140000
opls_142-9    C    0.47637000    0.81626004    0.12160111    0.06900000
opls_145-10    C    0.93190995    0.48119008    0.84113972    -0.16870000
opls_145-11    C    0.98373009    0.47395015    0.86949127    -0.13180000
opls_145-12    C    0.53146999    0.92696008    0.85333045    -0.17130000
opls_145-13    C    0.52223986    0.97564994    0.82496089    -0.13200000
opls_700-14    C    0.46632990    0.38096991    0.98473972    0.02680000
opls_700-15    C    0.50252997    0.42505993    0.99464050    -0.00220000
opls_145-16    C    0.59036012    0.46738001    0.04376878    -0.13300000
opls_700-17    C    0.48058013    0.32839985    0.99227080    0.06730000
opls_145-18    C    0.45380990    0.28079998    0.78956970    -0.13240000
opls_145-19    C    0.46643016    0.23165002    0.79427051    -0.13230000
opls_700-20    C    0.50714983    0.22876999    0.99392007    0.05230000
opls_145-21    C    0.53400018    0.27564008    0.19461941    -0.12060000
opls_145-22    C    0.51931993    0.32466019    0.20455107    -0.11720000
opls_142-23    C    0.52032984    0.17774990    0.01200033    0.01800000
opls_700-24    C    0.60843006    0.55957990    0.05798958    0.02850000
opls_700-25    C    0.57352999    0.51459014    0.03109948    0.03220000
opls_145-26    C    0.55613991    0.42312009    0.00912118    -0.12920000
opls_700-27    C    0.66492004    0.56041982    0.09878916    0.06430000
opls_145-28    C    0.68976993    0.59987008    0.37356943    -0.11940000
opls_145-29    C    0.74280995    0.60136024    0.41410142    -0.11970000
opls_700-30    C    0.77209013    0.56347996    0.18004096    0.05900000
opls_145-31    C    0.74766001    0.52497015    0.89846034    -0.13200000
opls_145-32    C    0.69460997    0.52385000    0.85618130    -0.13060000
opls_142-33    C    0.82750000    0.56410016    0.23975958    0.06930000
opls_145-34    C    0.44276014    0.91466004    0.03624027    -0.17090000
opls_145-35    C    0.43326010    0.96319016    0.00523085    -0.13180000
opls_700-36    C    0.39596002    0.43129001    0.92314026    0.02960000
opls_700-37    C    0.43172981    0.47439982    0.92288039    0.02960000
opls_145-38    C    0.45105012    0.56180012    0.87014995    -0.12760000
opls_700-39    C    0.33952991    0.43145005    0.88394107    0.06430000
opls_145-40    C    0.31325992    0.39040003    0.62477101    -0.12580000
opls_145-41    C    0.26053009    0.39086981    0.58022004    -0.12430000
opls_700-42    C    0.23289981    0.43175989    0.79974064    0.05940000
opls_145-43    C    0.25870013    0.47187009    0.06704129    -0.13190000
opls_145-44    C    0.31152009    0.47164980    0.10847896    -0.11890000
opls_142-45    C    0.17777010    0.43296992    0.74172018    0.01270000
opls_145-46    C    0.94146008    0.56599008    0.29306122    -0.17080000
opls_145-47    C    0.99330020    0.55910000    0.32104998    -0.13180000
opls_700-48    C    0.47296012    0.99435018    0.90160965    -0.06370000
opls_700-49    C    0.01531016    0.51302019    0.11070973    -0.03370000
opls_700-50    C    0.52031009    0.51672996    0.98780155    0.02670000
opls_145-51    C    0.58941995    0.60620993    0.05489945    -0.17190000
opls_700-52    C    0.48473997    0.47214986    0.97213989    0.00800000
opls_145-53    C    0.41375997    0.38604002    0.95758975    -0.16520000
opls_145-54    C    0.91010003    0.52657004    0.05499979    0.18920000
opls_234-55    C    0.07036018    0.50639003    0.15826078    0.44840000
opls_145-56    C    0.49225008    0.89636994    0.96175024    0.18830000
opls_234-57    C    0.46223992    0.04527985    0.86359145    0.44580000
opls_238-58    N    0.09789999    0.46992001    0.91610061    -0.28010000
opls_750-59    N    0.14995005    0.46580016    0.96853001    -0.18610000
opls_238-60    N    0.49902006    0.08728985    0.93664063    -0.28010000
opls_750-61    N    0.48900979    0.13549985    0.89981114    -0.18610000
opls_750-62    N    0.85620017    0.53076997    0.02155891    -0.34340000
opls_750-63    N    0.50380010    0.84584998    0.97238175    -0.35080000
opls_236-64    O    0.09134009    0.53436010    0.42274917    -0.41120000
opls_236-65    O    0.42002001    0.04961009    0.76665998    -0.40450000
opls_146-66    H    0.37702995    0.52056016    0.79631088    0.12010000
opls_146-67    H    0.58519019    0.68076020    0.72571117    0.11980000
opls_146-68    H    0.56117985    0.76898990    0.78642038    0.11420000
opls_146-69    H    0.42789991    0.74611011    0.40231979    0.11600000
opls_146-70    H    0.45393020    0.65919021    0.36381016    0.11600000
opls_144-71    H    0.44158015    0.82932009    0.26769946    0.11740000
opls_146-72    H    0.90807003    0.45097997    0.65512947    0.11900000
opls_146-73    H    0.99820016    0.43731996    0.70668149    0.11880000
opls_910-74    H    0.08182995    0.44857000    0.67881108    0.26310000
opls_146-75    H    0.56918008    0.91230989    0.78641009    0.11880000
opls_146-76    H    0.55311994    0.99777986    0.73217961    0.11490000
opls_910-77    H    0.53342003    0.08437005    0.04457155    0.26370000
opls_146-78    H    0.63044994    0.46358000    0.07585114    0.11280000
opls_146-79    H    0.42408995    0.28128990    0.61765932    0.11660000
opls_146-80    H    0.44521015    0.19564012    0.63625160    0.11080000
opls_146-81    H    0.56442003    0.27445980    0.35999959    0.11730000
opls_146-82    H    0.53825997    0.35968011    0.38195988    0.09570000
opls_144-83    H    0.55487008    0.17657013    0.14296962    0.10510000
opls_146-84    H    0.57332013    0.38707990    0.98004920    0.11560000
opls_146-85    H    0.66786006    0.62897020    0.56061144    0.11700000
opls_146-86    H    0.76082991    0.63135996    0.63341104    0.11150000
opls_146-87    H    0.76983020    0.49605001    0.71085999    0.11730000
opls_146-88    H    0.67664000    0.49463990    0.63358085    0.11630000
opls_144-89    H    0.84290988    0.59159999    0.47742991    0.12000000
opls_146-90    H    0.41119015    0.89150000    0.11223035    0.11860000
opls_146-91    H    0.39502006    0.97703992    0.06557984    0.11330000
opls_146-92    H    0.43716008    0.59379006    0.80522107    0.12000000
opls_146-93    H    0.33383993    0.35841994    0.45342925    0.11700000
opls_146-94    H    0.24140004    0.35958018    0.37234984    0.11150000
opls_146-95    H    0.23794986    0.50369996    0.24093028    0.11470000
opls_146-96    H    0.33069003    0.50320980    0.31316897    0.11860000
opls_144-97    H    0.16072003    0.40670996    0.50505074    0.10610000
opls_146-98    H    0.92653009    0.60220006    0.45732988    0.11030000
opls_146-99    H    0.01654999    0.58980993    0.50959975    0.11320000
opls_146-100    H    0.61606003    0.64115002    0.09456949    0.11600000
opls_146-101    H    0.38563015    0.35391020    0.96232144    0.11700000
