#======================================================================
# Crystal Data Generated By AuToFF
#----------------------------------------------------------------------

data_AuToFF_phase_1

_cell_length_a                         27.2870
_cell_length_b                         27.2870
_cell_length_c                         6.5800
_cell_angle_alpha                      90.00
_cell_angle_beta                       90.00
_cell_angle_gamma                      120.00
_symmetry_space_group_name_H-M_alt     'P 1'
_symmetry_space_group_IT_number        1

loop_
_space_group_symop_operation_xyz
   'x, y, z'

loop_
   _atom_site_label
   _atom_site_type_symbol
   _atom_site_fract_x
   _atom_site_fract_y
   _atom_site_fract_z
   _atom_site_charge
opls_280-0    C    0.62901998    0.35549002    0.25000000    0.30540000
opls_522-1    C    0.60814000    0.29646984    0.25000000    -0.11770000
opls_166-2    C    0.73681023    0.28811015    0.25000000    0.47200000
opls_567-3    C    0.75000014    0.21567002    0.25000000    0.40510000
opls_522-4    C    0.80792012    0.24860016    0.25000000    -0.10760000
opls_166-5    C    0.82816985    0.30425995    0.25000000    0.49060000
opls_142-6    C    0.89631997    0.39484978    0.25000000    0.13380000
opls_142-7    C    0.94610997    0.43750011    0.25000000    -0.18580000
opls_523-8    C    0.83020982    0.21321987    0.25000000    -0.01280000
opls_567-9    C    0.78065991    0.15789988    0.25000000    0.24290000
opls_145-10    C    0.78465006    0.11227003    0.25000000    -0.19750000
opls_142-11    C    0.97983006    0.49117990    0.25000000    -0.11090000
opls_143-12    C    0.03329003    0.52558985    0.25000000    -0.30950000
opls_280-13    C    0.64451001    0.27352987    0.25000000    0.30540000
opls_522-14    C    0.70352990    0.31167006    0.25000000    -0.11770000
opls_166-15    C    0.71188991    0.44870011    0.25000000    0.47200000
opls_567-16    C    0.78432994    0.53432998    0.25000000    0.40510000
opls_522-17    C    0.75139991    0.55931978    0.25000000    -0.10760000
opls_166-18    C    0.69573989    0.52390988    0.25000000    0.49060000
opls_142-19    C    0.60514997    0.50147009    0.25000000    0.13390000
opls_142-20    C    0.56250001    0.50860979    0.25000000    -0.18580000
opls_523-21    C    0.78677992    0.61699005    0.25000000    -0.01280000
opls_567-22    C    0.84210010    0.62275996    0.25000000    0.24290000
opls_145-23    C    0.88772986    0.67237987    0.25000000    -0.19750000
opls_142-24    C    0.50882007    0.48864977    0.25000000    -0.11090000
opls_143-25    C    0.47440996    0.50769998    0.25000000    -0.30960000
opls_280-26    C    0.72647001    0.37098011    0.25000000    0.30540000
opls_522-27    C    0.68833009    0.39186010    0.25000000    -0.11770000
opls_166-28    C    0.55129986    0.26318974    0.25000000    0.47200000
opls_567-29    C    0.46566992    0.25000000    0.25000000    0.40500000
opls_522-30    C    0.44067997    0.19208006    0.25000000    -0.10760000
opls_166-31    C    0.47609026    0.17183017    0.25000000    0.49060000
opls_142-32    C    0.49853006    0.10368013    0.25000000    0.13380000
opls_142-33    C    0.49139003    0.05389010    0.25000000    -0.18580000
opls_523-34    C    0.38300989    0.16979007    0.25000000    -0.01280000
opls_567-35    C    0.37723999    0.21934016    0.25000000    0.24290000
opls_145-36    C    0.32762008    0.21535010    0.25000000    -0.19750000
opls_142-37    C    0.51135003    0.02016991    0.25000000    -0.11090000
opls_143-38    C    0.49229979    0.96670975    0.25000000    -0.30960000
opls_280-39    C    0.37098002    0.64450998    0.75000000    0.30540000
opls_522-40    C    0.39185978    0.70352973    0.75000000    -0.11770000
opls_166-41    C    0.26318977    0.71188985    0.75000000    0.47200000
opls_567-42    C    0.24999986    0.78432998    0.75000000    0.40500000
opls_522-43    C    0.19207988    0.75139984    0.75000000    -0.10760000
opls_166-44    C    0.17183015    0.69574005    0.75000000    0.49060000
opls_142-45    C    0.10367982    0.60514979    0.75000000    0.13380000
opls_142-46    C    0.05389003    0.56249989    0.75000000    -0.18580000
opls_523-47    C    0.16978997    0.78677970    0.75000000    -0.01280000
opls_567-48    C    0.21933988    0.84209970    0.75000000    0.24290000
opls_145-49    C    0.21534994    0.88772997    0.75000000    -0.19750000
opls_142-50    C    0.02016994    0.50882010    0.75000000    -0.11090000
opls_143-51    C    0.96670975    0.47440972    0.75000000    -0.30950000
opls_280-52    C    0.35548977    0.72646971    0.75000000    0.30540000
opls_522-53    C    0.29647010    0.68832994    0.75000000    -0.11770000
opls_166-54    C    0.28811009    0.55129989    0.75000000    0.47200000
opls_567-55    C    0.21567006    0.46567002    0.75000000    0.40500000
opls_522-56    C    0.24859987    0.44067980    0.75000000    -0.10760000
opls_166-57    C    0.30425990    0.47608970    0.75000000    0.49060000
opls_142-58    C    0.39485003    0.49852991    0.75000000    0.13380000
opls_142-59    C    0.43749978    0.49138979    0.75000000    -0.18580000
opls_523-60    C    0.21322008    0.38300995    0.75000000    -0.01280000
opls_567-61    C    0.15789990    0.37724004    0.75000000    0.24290000
opls_145-62    C    0.11227014    0.32762013    0.75000000    -0.19750000
opls_142-63    C    0.49117972    0.51134981    0.75000000    -0.11090000
opls_143-64    C    0.52559004    0.49230002    0.75000000    -0.30960000
opls_280-65    C    0.27352999    0.62901989    0.75000000    0.30540000
opls_522-66    C    0.31166991    0.60813990    0.75000000    -0.11770000
opls_166-67    C    0.44869993    0.73680983    0.75000000    0.47200000
opls_567-68    C    0.53433008    0.75000000    0.75000000    0.40500000
opls_522-69    C    0.55932003    0.80791994    0.75000000    -0.10760000
opls_166-70    C    0.52390974    0.82816983    0.75000000    0.49060000
opls_142-71    C    0.50146994    0.89631987    0.75000000    0.13380000
opls_142-72    C    0.50860997    0.94610990    0.75000000    -0.18580000
opls_523-73    C    0.61699011    0.83020993    0.75000000    -0.01280000
opls_567-74    C    0.62276001    0.78065984    0.75000000    0.24290000
opls_145-75    C    0.67237992    0.78464990    0.75000000    -0.19750000
opls_142-76    C    0.48864976    0.97982967    0.75000000    -0.11090000
opls_143-77    C    0.50770000    0.03328983    0.75000000    -0.30960000
opls_522-78    C    0.94147985    0.96312974    0.75000000    -0.11770000
opls_166-79    C    0.07014986    0.95476962    0.75000000    0.47200000
opls_567-80    C    0.08333009    0.88232992    0.75000000    0.40500000
opls_522-81    C    0.14125975    0.91525963    0.75000000    -0.10760000
opls_166-82    C    0.16151006    0.97091985    0.75000000    0.49060000
opls_142-83    C    0.22966002    0.06151010    0.75000000    0.13380000
opls_142-84    C    0.27944991    0.10422982    0.75000000    -0.18580000
opls_523-85    C    0.16355003    0.87987977    0.75000000    -0.01280000
opls_567-86    C    0.11399976    0.82455978    0.75000000    0.24290000
opls_145-87    C    0.11798990    0.77892992    0.75000000    -0.19750000
opls_142-88    C    0.31316991    0.15783979    0.75000000    -0.11090000
opls_143-89    C    0.36662988    0.19224975    0.75000000    -0.30950000
opls_280-90    C    0.96235982    0.02214992    0.75000000    0.30540000
opls_522-91    C    0.03686980    0.97834985    0.75000000    -0.11770000
opls_166-92    C    0.04522980    0.11537990    0.75000000    0.47200000
opls_567-93    C    0.11767010    0.20100003    0.75000000    0.40510000
opls_522-94    C    0.08474002    0.22599999    0.75000000    -0.10760000
opls_166-95    C    0.02907999    0.19059008    0.75000000    0.49060000
opls_142-96    C    0.93848986    0.16814987    0.75000000    0.13380000
opls_142-97    C    0.89577002    0.17522017    0.75000000    -0.18580000
opls_523-98    C    0.12011982    0.28366984    0.75000000    -0.01280000
opls_567-99    C    0.17543999    0.28943974    0.75000000    0.24290000
opls_145-100    C    0.22106996    0.33906007    0.75000000    -0.19750000
opls_142-101    C    0.84216017    0.15532998    0.75000000    -0.11090000
opls_143-102    C    0.80774985    0.17437976    0.75000000    -0.30960000
opls_280-103    C    0.97784991    0.94020965    0.75000000    0.30550000
opls_522-104    C    0.02165015    0.05851999    0.75000000    -0.11770000
opls_166-105    C    0.88461991    0.92984964    0.75000000    0.47200000
opls_567-106    C    0.79899997    0.91666963    0.75000000    0.40510000
opls_522-107    C    0.77400002    0.85873996    0.75000000    -0.10760000
opls_166-108    C    0.80940974    0.83848964    0.75000000    0.49060000
opls_142-109    C    0.83185012    0.77034002    0.75000000    0.13380000
opls_142-110    C    0.82478008    0.72055000    0.75000000    -0.18580000
opls_523-111    C    0.71632994    0.83644997    0.75000000    -0.01280000
opls_567-112    C    0.71055983    0.88599963    0.75000000    0.24290000
opls_145-113    C    0.66094013    0.88201000    0.75000000    -0.19750000
opls_142-114    C    0.84467008    0.68682981    0.75000000    -0.11090000
opls_143-115    C    0.82562006    0.63337006    0.75000000    -0.30960000
opls_280-116    C    0.05979006    0.03764001    0.75000000    0.30540000
opls_522-117    C    0.05851994    0.03686984    0.25000000    -0.11770000
opls_166-118    C    0.92984993    0.04522996    0.25000000    0.47200000
opls_567-119    C    0.91666991    0.11767008    0.25000000    0.40500000
opls_522-120    C    0.85874004    0.08473995    0.25000000    -0.10760000
opls_166-121    C    0.83848994    0.02908015    0.25000000    0.49060000
opls_142-122    C    0.77033998    0.93848990    0.25000000    0.13380000
opls_142-123    C    0.72054988    0.89576975    0.25000000    -0.18580000
opls_523-124    C    0.83644976    0.12011981    0.25000000    -0.01280000
opls_567-125    C    0.88600003    0.17543980    0.25000000    0.24290000
opls_145-126    C    0.88201010    0.22107008    0.25000000    -0.19750000
opls_142-127    C    0.68682988    0.84215979    0.25000000    -0.11090000
opls_143-128    C    0.63336991    0.80774983    0.25000000    -0.30950000
opls_280-129    C    0.03763997    0.97784966    0.25000000    0.30550000
opls_522-130    C    0.96313020    0.02165015    0.25000000    -0.11770000
opls_166-131    C    0.95476999    0.88461968    0.25000000    0.47200000
opls_567-132    C    0.88232990    0.79899997    0.25000000    0.40520000
opls_522-133    C    0.91525998    0.77400001    0.25000000    -0.10760000
opls_166-134    C    0.97092001    0.80940992    0.25000000    0.49060000
opls_142-135    C    0.06150993    0.83184970    0.25000000    0.13380000
opls_142-136    C    0.10422998    0.82477983    0.25000000    -0.18580000
opls_523-137    C    0.87987997    0.71632974    0.25000000    -0.01280000
opls_567-138    C    0.82455979    0.71055984    0.25000000    0.24300000
opls_145-139    C    0.77893004    0.66093993    0.25000000    -0.19750000
opls_142-140    C    0.15783983    0.84467002    0.25000000    -0.11090000
opls_143-141    C    0.19224993    0.82561982    0.25000000    -0.30960000
opls_280-142    C    0.02214988    0.05978992    0.25000000    0.30540000
opls_522-143    C    0.97834985    0.94148001    0.25000000    -0.11770000
opls_166-144    C    0.11537988    0.07014994    0.25000000    0.47200000
opls_567-145    C    0.20099982    0.08332995    0.25000000    0.40510000
opls_522-146    C    0.22599998    0.14126004    0.25000000    -0.10760000
opls_166-147    C    0.19059005    0.16150993    0.25000000    0.49060000
opls_142-148    C    0.16814988    0.22965998    0.25000000    0.13380000
opls_142-149    C    0.17521992    0.27945000    0.25000000    -0.18580000
opls_523-150    C    0.28367006    0.16355003    0.25000000    -0.01280000
opls_567-151    C    0.28943996    0.11399994    0.25000000    0.24290000
opls_145-152    C    0.33905987    0.11799000    0.25000000    -0.19750000
opls_142-153    C    0.15532971    0.31316977    0.25000000    -0.11090000
opls_143-154    C    0.17437994    0.36662994    0.25000000    -0.30960000
opls_280-155    C    0.94020994    0.96235999    0.25000000    0.30540000
opls_281-156    O    0.62608998    0.22329002    0.25000000    -0.32160000
opls_180-157    O    0.79376986    0.32364997    0.25000000    -0.30600000
opls_180-158    O    0.88132001    0.34096010    0.25000000    -0.27820000
opls_566-159    O    0.73366021    0.16212014    0.25000000    -0.21900000
opls_281-160    O    0.77670978    0.40279985    0.25000000    -0.32160000
opls_180-161    O    0.67635002    0.47012006    0.25000000    -0.30610000
opls_180-162    O    0.65903975    0.54035971    0.25000000    -0.27820000
opls_566-163    O    0.83788019    0.57154005    0.25000000    -0.21900000
opls_281-164    O    0.59720024    0.37391013    0.25000000    -0.32160000
opls_180-165    O    0.52988011    0.20622997    0.25000000    -0.30610000
opls_180-166    O    0.45964003    0.11867976    0.25000000    -0.27820000
opls_566-167    O    0.42845997    0.26633981    0.25000000    -0.21900000
opls_281-168    O    0.37391002    0.77670998    0.75000000    -0.32160000
opls_180-169    O    0.20623014    0.67635003    0.75000000    -0.30610000
opls_180-170    O    0.11867999    0.65903990    0.75000000    -0.27820000
opls_566-171    O    0.26633979    0.83787986    0.75000000    -0.21890000
opls_281-172    O    0.22329001    0.59719972    0.75000000    -0.32160000
opls_180-173    O    0.32364998    0.52987994    0.75000000    -0.30610000
opls_180-174    O    0.34096004    0.45963987    0.75000000    -0.27820000
opls_566-175    O    0.16211981    0.42845995    0.75000000    -0.21900000
opls_281-176    O    0.40279976    0.62608987    0.75000000    -0.32160000
opls_180-177    O    0.47011989    0.79377003    0.75000000    -0.30610000
opls_180-178    O    0.54035976    0.88131981    0.75000000    -0.27820000
opls_566-179    O    0.57153982    0.73365977    0.75000000    -0.21900000
opls_281-180    O    0.95942983    0.88994991    0.75000000    -0.32160000
opls_180-181    O    0.12711007    0.99030986    0.75000000    -0.30610000
opls_180-182    O    0.21465985    0.00762000    0.75000000    -0.27820000
opls_566-183    O    0.06700005    0.82878004    0.75000000    -0.21900000
opls_281-184    O    0.11004989    0.06948006    0.75000000    -0.32150000
opls_180-185    O    0.00968991    0.13679985    0.75000000    -0.30610000
opls_180-186    O    0.99237986    0.20703992    0.75000000    -0.27820000
opls_566-187    O    0.17122008    0.23821983    0.75000000    -0.21890000
opls_281-188    O    0.93051992    0.04057003    0.75000000    -0.32160000
opls_180-189    O    0.86319980    0.87288987    0.75000000    -0.30610000
opls_180-190    O    0.79295971    0.78533966    0.75000000    -0.27820000
opls_566-191    O    0.76178002    0.93299971    0.75000000    -0.21900000
opls_281-192    O    0.04057017    0.11005009    0.25000000    -0.32160000
opls_180-193    O    0.87288993    0.00969014    0.25000000    -0.30610000
opls_180-194    O    0.78534015    0.99238000    0.25000000    -0.27820000
opls_566-195    O    0.93299995    0.17121996    0.25000000    -0.21890000
opls_281-196    O    0.88995011    0.93051994    0.25000000    -0.32160000
opls_180-197    O    0.99030987    0.86319973    0.25000000    -0.30610000
opls_180-198    O    0.00761993    0.79295966    0.25000000    -0.27820000
opls_566-199    O    0.82877971    0.76177975    0.25000000    -0.21900000
opls_281-200    O    0.06948008    0.95942997    0.25000000    -0.32160000
opls_180-201    O    0.13680020    0.12711013    0.25000000    -0.30610000
opls_180-202    O    0.20704008    0.21465992    0.25000000    -0.27820000
opls_566-203    O    0.23821976    0.06699987    0.25000000    -0.21890000
opls_520-204    N    0.71555013    0.23387008    0.25000000    -0.25050000
opls_520-205    N    0.76612994    0.48167976    0.25000000    -0.25050000
opls_520-206    N    0.51831971    0.28444974    0.25000000    -0.25050000
opls_520-207    N    0.28444987    0.76612992    0.75000000    -0.25050000
opls_520-208    N    0.23386984    0.51831982    0.75000000    -0.25040000
opls_520-209    N    0.48168008    0.71554984    0.75000000    -0.25050000
opls_520-210    N    0.04888997    0.90052998    0.75000000    -0.25050000
opls_520-211    N    0.09947005    0.14835997    0.75000000    -0.25050000
opls_520-212    N    0.85163977    0.95110963    0.75000000    -0.25050000
opls_520-213    N    0.95111003    0.09947002    0.25000000    -0.25050000
opls_520-214    N    0.90052995    0.85164003    0.25000000    -0.25050000
opls_520-215    N    0.14836002    0.04888994    0.25000000    -0.25050000
opls_185-216    H    0.86259022    0.40786010    0.25000000    0.02440000
opls_144-217    H    0.98432016    0.43110010    0.25000000    0.04520000
opls_146-218    H    0.74473020    0.06886012    0.25000000    0.04530000
opls_144-219    H    0.96208973    0.52115970    0.25000000    0.04520000
opls_144-220    H    0.06194998    0.51793008    0.14463070    0.10370000
opls_144-221    H    0.05221991    0.56387985    0.35536930    0.10370000
opls_185-222    H    0.59214004    0.45474000    0.25000000    0.02440000
opls_144-223    H    0.56890000    0.55321981    0.25000000    0.04520000
opls_146-224    H    0.93113969    0.67586974    0.25000000    0.04520000
opls_144-225    H    0.47883999    0.44092989    0.25000000    0.04520000
opls_144-226    H    0.43185009    0.48316000    0.16956991    0.10370000
opls_144-227    H    0.48633987    0.54919970    0.33043009    0.10370000
opls_185-228    H    0.54526016    0.13741006    0.25000000    0.02440000
opls_144-229    H    0.44678020    0.01568009    0.25000000    0.04520000
opls_146-230    H    0.32413011    0.25527014    0.25000000    0.04520000
opls_144-231    H    0.55907007    0.03790999    0.25000000    0.04520000
opls_144-232    H    0.52071979    0.94935983    0.20024012    0.10370000
opls_144-233    H    0.44691983    0.93645996    0.29975988    0.10370000
opls_185-234    H    0.13740978    0.59213990    0.75000000    0.02440000
opls_144-235    H    0.01567984    0.56889990    0.75000000    0.04520000
opls_146-236    H    0.25526980    0.93113988    0.75000000    0.04520000
opls_144-237    H    0.03791006    0.47883987    0.75000000    0.04520000
opls_144-238    H    0.94777988    0.43611973    0.64463070    0.10370000
opls_144-239    H    0.93805002    0.48206992    0.85536930    0.10370000
opls_185-240    H    0.40785996    0.54526000    0.75000000    0.02440000
opls_144-241    H    0.43109978    0.44677977    0.75000000    0.04520000
opls_146-242    H    0.06886010    0.32412984    0.75000000    0.04520000
opls_144-243    H    0.52115979    0.55906969    0.75000000    0.04520000
opls_144-244    H    0.51365991    0.45079987    0.66956991    0.10370000
opls_144-245    H    0.56814991    0.51684000    0.83043009    0.10370000
opls_185-246    H    0.45473984    0.86258994    0.75000000    0.02440000
opls_144-247    H    0.55321980    0.98431991    0.75000000    0.04520000
opls_146-248    H    0.67586989    0.74472986    0.75000000    0.04520000
opls_144-249    H    0.44092993    0.96209001    0.75000000    0.04520000
opls_144-250    H    0.55308017    0.06354004    0.70024012    0.10370000
opls_144-251    H    0.47928021    0.05064017    0.79975988    0.10370000
opls_185-252    H    0.19593006    0.07452000    0.75000000    0.02440000
opls_144-253    H    0.31769999    0.09790007    0.75000000    0.04520000
opls_146-254    H    0.07807005    0.73552002    0.75000000    0.04530000
opls_144-255    H    0.29547009    0.18785007    0.75000000    0.04520000
opls_144-256    H    0.39528982    0.18458997    0.64463070    0.10370000
opls_144-257    H    0.38555975    0.23053974    0.85536930    0.10370000
opls_185-258    H    0.92547993    0.12141978    0.75000000    0.02440000
opls_144-259    H    0.90210002    0.21980015    0.75000000    0.04520000
opls_146-260    H    0.26447980    0.34254995    0.75000000    0.04520000
opls_144-261    H    0.81214978    0.10761983    0.75000000    0.04520000
opls_144-262    H    0.76518999    0.14983979    0.66956991    0.10370000
opls_144-263    H    0.81967998    0.21587991    0.83043009    0.10370000
opls_185-264    H    0.87857985    0.80406995    0.75000000    0.02440000
opls_144-265    H    0.78019999    0.68229979    0.75000000    0.04520000
opls_146-266    H    0.65744995    0.92192962    0.75000000    0.04520000
opls_144-267    H    0.89237991    0.70452968    0.75000000    0.04520000
opls_144-268    H    0.85403984    0.61601973    0.70024012    0.10370000
opls_144-269    H    0.78023988    0.60311985    0.79975988    0.10370000
opls_185-270    H    0.80406994    0.92548000    0.25000000    0.02440000
opls_144-271    H    0.68230001    0.90209993    0.25000000    0.04520000
opls_146-272    H    0.92192995    0.26447998    0.25000000    0.04520000
opls_144-273    H    0.70452991    0.81214993    0.25000000    0.04520000
opls_144-274    H    0.61444004    0.76945983    0.14463070    0.10370000
opls_144-275    H    0.60471018    0.81541003    0.35536930    0.10370000
opls_185-276    H    0.07451986    0.87857980    0.25000000    0.02440000
opls_144-277    H    0.09789998    0.78019985    0.25000000    0.04520000
opls_146-278    H    0.73552020    0.65745005    0.25000000    0.04520000
opls_144-279    H    0.18785001    0.89237975    0.25000000    0.04520000
opls_144-280    H    0.18031981    0.78411967    0.16956991    0.10370000
opls_144-281    H    0.23480980    0.85015979    0.33043009    0.10370000
opls_185-282    H    0.12142015    0.19593005    0.25000000    0.02440000
opls_144-283    H    0.21979980    0.31769979    0.25000000    0.04520000
opls_146-284    H    0.34254984    0.07806996    0.25000000    0.04520000
opls_144-285    H    0.10761987    0.29546989    0.25000000    0.04520000
opls_144-286    H    0.21975990    0.39687972    0.20024012    0.10370000
opls_144-287    H    0.14595995    0.38397985    0.29975988    0.10370000
