#======================================================================
# Crystal Data Generated By AuToFF
#----------------------------------------------------------------------

data_AuToFF_phase_1

_cell_length_a                         25.1340
_cell_length_b                         9.6590
_cell_length_c                         18.8820
_cell_angle_alpha                      90.00
_cell_angle_beta                       116.48
_cell_angle_gamma                      90.00
_symmetry_space_group_name_H-M_alt     'P 1'
_symmetry_space_group_IT_number        1

loop_
_space_group_symop_operation_xyz
   'x, y, z'

loop_
   _atom_site_label
   _atom_site_type_symbol
   _atom_site_fract_x
   _atom_site_fract_y
   _atom_site_fract_z
   _atom_site_charge
opls_700-0    C    0.18360006    0.36280050    0.23969992    0.01140000
opls_145-1    C    0.17440020    0.24719950    0.27510001    -0.17040000
opls_142-2    C    0.13580011    0.42389999    0.17010027    0.07680000
opls_145-3    C    0.24039990    0.42740035    0.27490002    -0.15390000
opls_145-4    C    0.27840012    0.24309970    0.36959983    -0.15920000
opls_700-5    C    0.28739996    0.36450047    0.33890004    0.04560000
opls_700-6    C    0.22060018    0.18570038    0.34019995    0.04370000
opls_145-7    C    0.04230002    0.44200021    0.06609988    0.10490000
opls_142-8    C    0.34520023    0.43209960    0.37490008    0.07670000
opls_700-9    C    0.21570016    0.74729993    0.41589980    0.03840000
opls_142-10    C    0.21219988    0.06050005    0.37699994    0.07670000
opls_145-11    C    0.25089997    0.86690030    0.45700011    0.09920000
opls_700-12    C    0.28380015    0.86640025    0.53780022    0.04370000
opls_145-13    C    0.44589999    0.43660006    0.45969994    0.11510000
opls_148-14    C    0.18089999    0.74899990    0.32790015    -0.46220000
opls_700-15    C    0.46920003    0.44690030    0.54050005    0.06090000
opls_145-16    C    0.04180026    0.40679988    0.99720018    0.04490000
opls_148-17    C    0.32039992    0.99209960    0.57790001    -0.45830000
opls_700-18    C    0.00170014    0.53039963    0.07399996    0.04140000
opls_700-19    C    0.52500032    0.51000000    0.58280028    0.06050000
opls_148-20    C    0.08400004    0.30039963    0.99259989    -0.45930000
opls_148-21    C    0.54760000    0.53019981    0.66720016    -0.45300000
opls_148-22    C    0.00300018    0.56670049    0.15170027    -0.45470000
opls_148-23    C    0.43939996    0.37760017    0.58149977    -0.45380000
opls_700-24    C    0.68360006    0.86280050    0.23969992    0.01140000
opls_145-25    C    0.67440020    0.74719950    0.27510001    -0.17040000
opls_142-26    C    0.63580011    0.92389999    0.17010027    0.07680000
opls_145-27    C    0.74039990    0.92740035    0.27490002    -0.15380000
opls_145-28    C    0.77840012    0.74309970    0.36959983    -0.15920000
opls_700-29    C    0.78739996    0.86450047    0.33890004    0.04560000
opls_700-30    C    0.72060018    0.68570038    0.34019995    0.04370000
opls_145-31    C    0.54230002    0.94200021    0.06609988    0.10490000
opls_142-32    C    0.84520023    0.93209960    0.37490008    0.07670000
opls_700-33    C    0.71570016    0.24729993    0.41589980    0.03840000
opls_142-34    C    0.71219988    0.56050005    0.37699994    0.07670000
opls_145-35    C    0.75089997    0.36690030    0.45700011    0.09920000
opls_700-36    C    0.78380015    0.36640025    0.53780022    0.04370000
opls_145-37    C    0.94589999    0.93660006    0.45969994    0.11510000
opls_148-38    C    0.68089999    0.24899990    0.32790015    -0.46220000
opls_700-39    C    0.96920003    0.94690030    0.54050005    0.06090000
opls_145-40    C    0.54180026    0.90679988    0.99720018    0.04490000
opls_148-41    C    0.82039992    0.49209960    0.57790001    -0.45830000
opls_700-42    C    0.50170014    0.03039963    0.07399996    0.04140000
opls_700-43    C    0.02500032    0.01000000    0.58280028    0.06050000
opls_148-44    C    0.58400004    0.80039963    0.99259989    -0.45930000
opls_148-45    C    0.04760000    0.03019981    0.66720016    -0.45300000
opls_148-46    C    0.50300018    0.06670049    0.15170027    -0.45460000
opls_148-47    C    0.93939996    0.87760017    0.58149977    -0.45380000
opls_700-48    C    0.81640004    0.36280050    0.26029978    0.01140000
opls_145-49    C    0.82560009    0.24719950    0.22490029    -0.17040000
opls_142-50    C    0.86420019    0.42389999    0.32990002    0.07680000
opls_145-51    C    0.75960000    0.42740035    0.22510027    -0.15390000
opls_145-52    C    0.72159998    0.24309970    0.13039987    -0.15920000
opls_700-53    C    0.71259994    0.36450047    0.16110026    0.04560000
opls_700-54    C    0.77939992    0.18570038    0.15979975    0.04370000
opls_145-55    C    0.95770008    0.44200021    0.43389983    0.10490000
opls_142-56    C    0.65480007    0.43209960    0.12510022    0.07670000
opls_700-57    C    0.78429994    0.74729993    0.08409990    0.03840000
opls_142-58    C    0.78779983    0.06050005    0.12299976    0.07670000
opls_145-59    C    0.74909993    0.86690030    0.04300019    0.09920000
opls_700-60    C    0.71620015    0.86640025    0.96220007    0.04370000
opls_145-61    C    0.55410011    0.43660006    0.04029977    0.11510000
opls_148-62    C    0.81909991    0.74899990    0.17210014    -0.46230000
opls_700-63    C    0.53080027    0.44690030    0.95950025    0.06090000
opls_145-64    C    0.95820004    0.40679988    0.50280012    0.04490000
opls_148-65    C    0.67959998    0.99209960    0.92210029    -0.45830000
opls_700-66    C    0.99829996    0.53039963    0.42599974    0.04140000
opls_700-67    C    0.47499998    0.51000000    0.91720001    0.06050000
opls_148-68    C    0.91600006    0.30039963    0.50739982    -0.45930000
opls_148-69    C    0.45240030    0.53019981    0.83280013    -0.45300000
opls_148-70    C    0.99700012    0.56670049    0.34830002    -0.45470000
opls_148-71    C    0.56060014    0.37760017    0.91849993    -0.45380000
opls_700-72    C    0.31640004    0.86280050    0.26029978    0.01140000
opls_145-73    C    0.32560009    0.74719950    0.22490029    -0.17040000
opls_142-74    C    0.36420019    0.92389999    0.32990002    0.07680000
opls_145-75    C    0.25960000    0.92740035    0.22510027    -0.15390000
opls_145-76    C    0.22159998    0.74309970    0.13039987    -0.15920000
opls_700-77    C    0.21259994    0.86450047    0.16110026    0.04560000
opls_700-78    C    0.27939992    0.68570038    0.15979975    0.04370000
opls_145-79    C    0.45770008    0.94200021    0.43389983    0.10490000
opls_142-80    C    0.15480007    0.93209960    0.12510022    0.07670000
opls_700-81    C    0.28429994    0.24729993    0.08409990    0.03840000
opls_142-82    C    0.28779983    0.56050005    0.12299976    0.07670000
opls_145-83    C    0.24909993    0.36690030    0.04300019    0.09920000
opls_700-84    C    0.21620015    0.36640025    0.96220007    0.04370000
opls_145-85    C    0.05410011    0.93660006    0.04029977    0.11510000
opls_148-86    C    0.31909991    0.24899990    0.17210014    -0.46230000
opls_700-87    C    0.03080027    0.94690030    0.95950025    0.06090000
opls_145-88    C    0.45820004    0.90679988    0.50280012    0.04490000
opls_148-89    C    0.17959998    0.49209960    0.92210029    -0.45830000
opls_700-90    C    0.49829996    0.03039963    0.42599974    0.04140000
opls_700-91    C    0.97499998    0.01000000    0.91720001    0.06050000
opls_148-92    C    0.41600006    0.80039963    0.50739982    -0.45930000
opls_148-93    C    0.95240030    0.03019981    0.83280013    -0.45300000
opls_148-94    C    0.49700012    0.06670049    0.34830002    -0.45470000
opls_148-95    C    0.06060014    0.87760017    0.91849993    -0.45380000
opls_700-96    C    0.81639994    0.63719950    0.76030008    0.01140000
opls_145-97    C    0.82560019    0.75280050    0.72489999    -0.17040000
opls_142-98    C    0.86420009    0.57610001    0.82990032    0.07680000
opls_145-99    C    0.75960010    0.57259965    0.72509998    -0.15390000
opls_145-100    C    0.72160028    0.75690030    0.63040017    -0.15920000
opls_700-101    C    0.71260004    0.63549953    0.66109996    0.04560000
opls_700-102    C    0.77940022    0.81429962    0.65980005    0.04370000
opls_145-103    C    0.95769998    0.55799979    0.93390012    0.10490000
opls_142-104    C    0.65480017    0.56790040    0.62509992    0.07670000
opls_700-105    C    0.78430024    0.25270007    0.58410020    0.03840000
opls_142-106    C    0.78780012    0.93949995    0.62300006    0.07670000
opls_145-107    C    0.74910003    0.13309970    0.54299989    0.09920000
opls_700-108    C    0.71619985    0.13359975    0.46219978    0.04370000
opls_145-109    C    0.55410001    0.56339994    0.54030006    0.11510000
opls_148-110    C    0.81910001    0.25100010    0.67209985    -0.46230000
opls_700-111    C    0.53079997    0.55309970    0.45949995    0.06090000
opls_145-112    C    0.95820014    0.59320012    0.00279982    0.04490000
opls_148-113    C    0.67960008    0.00790040    0.42209999    -0.45830000
opls_700-114    C    0.99830026    0.46960037    0.92600004    0.04140000
opls_700-115    C    0.47500008    0.49000000    0.41719972    0.06050000
opls_148-116    C    0.91599996    0.69960037    0.00740011    -0.45930000
opls_148-117    C    0.45240000    0.46980019    0.33279984    -0.45300000
opls_148-118    C    0.99700002    0.43329951    0.84830032    -0.45470000
opls_148-119    C    0.56060004    0.62239983    0.41850023    -0.45380000
opls_700-120    C    0.31639994    0.13719950    0.76030008    0.01140000
opls_145-121    C    0.32560019    0.25280050    0.72489999    -0.17040000
opls_142-122    C    0.36420009    0.07610001    0.82990032    0.07680000
opls_145-123    C    0.25960010    0.07259965    0.72509998    -0.15390000
opls_145-124    C    0.22160028    0.25690030    0.63040017    -0.15920000
opls_700-125    C    0.21260004    0.13549953    0.66109996    0.04560000
opls_700-126    C    0.27940022    0.31429962    0.65980005    0.04370000
opls_145-127    C    0.45769998    0.05799979    0.93390012    0.10490000
opls_142-128    C    0.15480017    0.06790040    0.62509992    0.07670000
opls_700-129    C    0.28430024    0.75270007    0.58410020    0.03840000
opls_142-130    C    0.28780012    0.43949995    0.62300006    0.07670000
opls_145-131    C    0.24910003    0.63309970    0.54299989    0.09920000
opls_700-132    C    0.21619985    0.63359975    0.46219978    0.04370000
opls_145-133    C    0.05410001    0.06339994    0.54030006    0.11510000
opls_148-134    C    0.31910001    0.75100010    0.67209985    -0.46230000
opls_700-135    C    0.03079997    0.05309970    0.45949995    0.06090000
opls_145-136    C    0.45820014    0.09320012    0.00279982    0.04490000
opls_148-137    C    0.17960008    0.50790040    0.42209999    -0.45830000
opls_700-138    C    0.49830026    0.96960037    0.92600004    0.04140000
opls_700-139    C    0.97500008    0.99000000    0.41719972    0.06050000
opls_148-140    C    0.41599996    0.19960037    0.00740011    -0.45930000
opls_148-141    C    0.95240000    0.96980019    0.33279984    -0.45290000
opls_148-142    C    0.49700002    0.93329951    0.84830032    -0.45470000
opls_148-143    C    0.06060004    0.12239983    0.41850023    -0.45370000
opls_700-144    C    0.18359996    0.63719950    0.73970022    0.01140000
opls_145-145    C    0.17440010    0.75280050    0.77510030    -0.17040000
opls_142-146    C    0.13580021    0.57610001    0.67009998    0.07680000
opls_145-147    C    0.24040019    0.57259965    0.77490032    -0.15390000
opls_145-148    C    0.27840002    0.75690030    0.86960013    -0.15920000
opls_700-149    C    0.28740006    0.63549953    0.83889974    0.04560000
opls_700-150    C    0.22060008    0.81429962    0.84020025    0.04370000
opls_145-151    C    0.04229992    0.55799979    0.56610017    0.10490000
opls_142-152    C    0.34519993    0.56790040    0.87489978    0.07670000
opls_700-153    C    0.21570006    0.25270007    0.91590010    0.03840000
opls_142-154    C    0.21220017    0.93949995    0.87700024    0.07670000
opls_145-155    C    0.25090007    0.13309970    0.95699981    0.09920000
opls_700-156    C    0.28379985    0.13359975    0.03779993    0.04370000
opls_145-157    C    0.44590029    0.56339994    0.95970023    0.11510000
opls_148-158    C    0.18090009    0.25100010    0.82789986    -0.46230000
opls_700-159    C    0.46919973    0.55309970    0.04049975    0.06090000
opls_145-160    C    0.04179996    0.59320012    0.49719988    0.04490000
opls_148-161    C    0.32040002    0.00790040    0.07789971    -0.45830000
opls_700-162    C    0.00170004    0.46960037    0.57400026    0.04140000
opls_700-163    C    0.52500002    0.49000000    0.08279999    0.06060000
opls_148-164    C    0.08399994    0.69960037    0.49260018    -0.45930000
opls_148-165    C    0.54760010    0.46980019    0.16719987    -0.45290000
opls_148-166    C    0.00299988    0.43329951    0.65169998    -0.45470000
opls_148-167    C    0.43939986    0.62239983    0.08150007    -0.45380000
opls_700-168    C    0.68359996    0.13719950    0.73970022    0.01140000
opls_145-169    C    0.67440010    0.25280050    0.77510030    -0.17040000
opls_142-170    C    0.63580021    0.07610001    0.67009998    0.07680000
opls_145-171    C    0.74040019    0.07259965    0.77490032    -0.15390000
opls_145-172    C    0.77840002    0.25690030    0.86960013    -0.15920000
opls_700-173    C    0.78740006    0.13549953    0.83889974    0.04570000
opls_700-174    C    0.72060008    0.31429962    0.84020025    0.04370000
opls_145-175    C    0.54229992    0.05799979    0.56610017    0.10490000
opls_142-176    C    0.84519993    0.06790040    0.87489978    0.07670000
opls_700-177    C    0.71570006    0.75270007    0.91590010    0.03840000
opls_142-178    C    0.71220017    0.43949995    0.87700024    0.07670000
opls_145-179    C    0.75090007    0.63309970    0.95699981    0.09920000
opls_700-180    C    0.78379985    0.63359975    0.03779993    0.04370000
opls_145-181    C    0.94590029    0.06339994    0.95970023    0.11510000
opls_148-182    C    0.68090009    0.75100010    0.82789986    -0.46230000
opls_700-183    C    0.96919973    0.05309970    0.04049975    0.06090000
opls_145-184    C    0.54179996    0.09320012    0.49719988    0.04490000
opls_148-185    C    0.82040002    0.50790040    0.07789971    -0.45830000
opls_700-186    C    0.50170004    0.96960037    0.57400026    0.04140000
opls_700-187    C    0.02500002    0.99000000    0.08279999    0.06050000
opls_148-188    C    0.58399994    0.19960037    0.49260018    -0.45930000
opls_148-189    C    0.04760010    0.96980019    0.16719987    -0.45290000
opls_148-190    C    0.50299988    0.93329951    0.65169998    -0.45470000
opls_148-191    C    0.93939986    0.12239983    0.08150007    -0.45380000
opls_146-192    H    0.13653983    0.20907961    0.25508000    0.18900000
opls_144-193    H    0.14393983    0.50541050    0.15050982    0.08870000
opls_146-194    H    0.24619007    0.51139041    0.25526993    0.18900000
opls_146-195    H    0.31030020    0.19840977    0.40992031    0.18900000
opls_144-196    H    0.34826021    0.52537012    0.36502024    0.08870000
opls_144-197    H    0.17430011    0.03690962    0.37007021    0.08880000
opls_702-198    H    0.19817996    0.81467957    0.30604002    0.12520000
opls_702-199    H    0.14055027    0.77494047    0.31385017    0.12520000
opls_702-200    H    0.18160004    0.65854022    0.30730977    0.12520000
opls_702-201    H    0.36014995    0.96399006    0.61293029    0.12520000
opls_702-202    H    0.30301991    0.03830003    0.60755016    0.12520000
opls_702-203    H    0.32124003    0.05403976    0.53862976    0.12520000
opls_140-204    H    0.11851999    0.34600994    0.99437019    0.12520000
opls_140-205    H    0.06466011    0.24948960    0.94407994    0.12530000
opls_140-206    H    0.09581994    0.23789005    0.03658995    0.12520000
opls_702-207    H    0.52982031    0.61141008    0.67692025    0.12530000
opls_702-208    H    0.58996996    0.54171964    0.69059984    0.12520000
opls_702-209    H    0.53806008    0.45104980    0.69006023    0.12520000
opls_702-210    H    0.98365003    0.49531007    0.16690994    0.12520000
opls_702-211    H    0.98280003    0.65308003    0.14693017    0.12520000
opls_702-212    H    0.04355025    0.57518998    0.19110010    0.12520000
opls_702-213    H    0.40525020    0.32877006    0.54385013    0.12520000
opls_702-214    H    0.42709009    0.44511026    0.60850987    0.12520000
opls_702-215    H    0.46632012    0.31323015    0.61928018    0.12520000
opls_146-216    H    0.63653983    0.70907961    0.25508000    0.18900000
opls_144-217    H    0.64393983    0.00541050    0.15050982    0.08880000
opls_146-218    H    0.74619007    0.01139041    0.25526993    0.18900000
opls_146-219    H    0.81030020    0.69840977    0.40992031    0.18900000
opls_144-220    H    0.84826021    0.02537012    0.36502024    0.08870000
opls_144-221    H    0.67430011    0.53690962    0.37007021    0.08870000
opls_702-222    H    0.69817996    0.31467957    0.30604002    0.12520000
opls_702-223    H    0.64055027    0.27494047    0.31385017    0.12520000
opls_702-224    H    0.68160004    0.15854022    0.30730977    0.12520000
opls_702-225    H    0.86014995    0.46399006    0.61293029    0.12520000
opls_702-226    H    0.80301991    0.53830003    0.60755016    0.12520000
opls_702-227    H    0.82124003    0.55403976    0.53862976    0.12520000
opls_140-228    H    0.61851999    0.84600994    0.99437019    0.12520000
opls_140-229    H    0.56466011    0.74948960    0.94407994    0.12520000
opls_140-230    H    0.59581994    0.73789005    0.03658995    0.12520000
opls_702-231    H    0.02982031    0.11141008    0.67692025    0.12520000
opls_702-232    H    0.08996996    0.04171964    0.69059984    0.12520000
opls_702-233    H    0.03806008    0.95104980    0.69006023    0.12520000
opls_702-234    H    0.48365003    0.99531007    0.16690994    0.12530000
opls_702-235    H    0.48280003    0.15308003    0.14693017    0.12520000
opls_702-236    H    0.54355025    0.07518998    0.19110010    0.12520000
opls_702-237    H    0.90525020    0.82877006    0.54385013    0.12520000
opls_702-238    H    0.92709009    0.94511026    0.60850987    0.12520000
opls_702-239    H    0.96632012    0.81323015    0.61928018    0.12520000
opls_146-240    H    0.86346007    0.20907961    0.24492030    0.18900000
opls_144-241    H    0.85605987    0.50541050    0.34948988    0.08870000
opls_146-242    H    0.75381003    0.51139041    0.24472978    0.18900000
opls_146-243    H    0.68970010    0.19840977    0.09007999    0.18900000
opls_144-244    H    0.65174009    0.52537012    0.13498005    0.08870000
opls_144-245    H    0.82570019    0.03690962    0.12993008    0.08870000
opls_702-246    H    0.80181994    0.81467957    0.19396027    0.12520000
opls_702-247    H    0.85945003    0.77494047    0.18615012    0.12520000
opls_702-248    H    0.81839011    0.65854022    0.19268994    0.12520000
opls_702-249    H    0.63984995    0.96399006    0.88707001    0.12520000
opls_702-250    H    0.69697999    0.03830003    0.89245013    0.12520000
opls_702-251    H    0.67876006    0.05403976    0.96136995    0.12520000
opls_140-252    H    0.88146996    0.34600994    0.50563011    0.12520000
opls_140-253    H    0.93533999    0.24948960    0.55591977    0.12530000
opls_140-254    H    0.90417976    0.23789005    0.46340976    0.12520000
opls_702-255    H    0.47017999    0.61141008    0.82308005    0.12520000
opls_702-256    H    0.41003014    0.54171964    0.80939987    0.12530000
opls_702-257    H    0.46194022    0.45104980    0.80994007    0.12520000
opls_702-258    H    0.01635007    0.49531007    0.33308976    0.12520000
opls_702-259    H    0.01720027    0.65308003    0.35307013    0.12520000
opls_702-260    H    0.95645005    0.57518998    0.30890020    0.12520000
opls_702-261    H    0.59475010    0.32877006    0.95615017    0.12520000
opls_702-262    H    0.57291001    0.44511026    0.89148984    0.12520000
opls_702-263    H    0.53368018    0.31323015    0.88072012    0.12520000
opls_146-264    H    0.36346007    0.70907961    0.24492030    0.18900000
opls_144-265    H    0.35605987    0.00541050    0.34948988    0.08870000
opls_146-266    H    0.25381003    0.01139041    0.24472978    0.18900000
opls_146-267    H    0.18970010    0.69840977    0.09007999    0.18900000
opls_144-268    H    0.15174009    0.02537012    0.13498005    0.08870000
opls_144-269    H    0.32570019    0.53690962    0.12993008    0.08870000
opls_702-270    H    0.30181994    0.31467957    0.19396027    0.12520000
opls_702-271    H    0.35945003    0.27494047    0.18615012    0.12520000
opls_702-272    H    0.31840006    0.15854022    0.19268994    0.12520000
opls_702-273    H    0.13984995    0.46399006    0.88707001    0.12520000
opls_702-274    H    0.19697999    0.53830003    0.89245013    0.12520000
opls_702-275    H    0.17876006    0.55403976    0.96136995    0.12520000
opls_140-276    H    0.38147991    0.84600994    0.50563011    0.12520000
opls_140-277    H    0.43533999    0.74948960    0.55591977    0.12520000
opls_140-278    H    0.40417976    0.73789005    0.46340976    0.12520000
opls_702-279    H    0.97017999    0.11141008    0.82308005    0.12520000
opls_702-280    H    0.91003014    0.04171964    0.80939987    0.12520000
opls_702-281    H    0.96194022    0.95104980    0.80994007    0.12520000
opls_702-282    H    0.51635007    0.99531007    0.33308976    0.12520000
opls_702-283    H    0.51720027    0.15308003    0.35307013    0.12520000
opls_702-284    H    0.45645005    0.07518998    0.30890020    0.12520000
opls_702-285    H    0.09475010    0.82877006    0.95615017    0.12520000
opls_702-286    H    0.07291001    0.94511026    0.89148984    0.12520000
opls_702-287    H    0.03368018    0.81323015    0.88072012    0.12520000
opls_146-288    H    0.86346017    0.79092039    0.74492000    0.18900000
opls_144-289    H    0.85606017    0.49458950    0.84949018    0.08870000
opls_146-290    H    0.75380993    0.48860959    0.74473007    0.18910000
opls_146-291    H    0.68970000    0.80159023    0.59008028    0.18900000
opls_144-292    H    0.65173979    0.47462988    0.63497976    0.08870000
opls_144-293    H    0.82569989    0.96309038    0.62992979    0.08870000
opls_702-294    H    0.80182004    0.18532043    0.69395998    0.12520000
opls_702-295    H    0.85945013    0.22505953    0.68614983    0.12520000
opls_702-296    H    0.81839001    0.34145978    0.69269023    0.12520000
opls_702-297    H    0.63985025    0.03600994    0.38707030    0.12520000
opls_702-298    H    0.69698009    0.96169997    0.39244984    0.12520000
opls_702-299    H    0.67875997    0.94596024    0.46137024    0.12520000
opls_140-300    H    0.88147006    0.65399006    0.00562981    0.12520000
opls_140-301    H    0.93533989    0.75051040    0.05592006    0.12520000
opls_140-302    H    0.90418006    0.76210995    0.96341005    0.12520000
opls_702-303    H    0.47018009    0.38858992    0.32307975    0.12520000
opls_702-304    H    0.41003004    0.45828036    0.30940016    0.12520000
opls_702-305    H    0.46193992    0.54895020    0.30993977    0.12520000
opls_702-306    H    0.01634997    0.50468993    0.83309006    0.12520000
opls_702-307    H    0.01719997    0.34691997    0.85306983    0.12520000
opls_702-308    H    0.95645015    0.42481002    0.80889990    0.12520000
opls_702-309    H    0.59474980    0.67122994    0.45614987    0.12520000
opls_702-310    H    0.57290991    0.55488974    0.39149013    0.12520000
opls_702-311    H    0.53367988    0.68676985    0.38071982    0.12520000
opls_146-312    H    0.36346017    0.29092039    0.74492000    0.18900000
opls_144-313    H    0.35606017    0.99458950    0.84949018    0.08870000
opls_146-314    H    0.25380993    0.98860959    0.74473007    0.18900000
opls_146-315    H    0.18970000    0.30159023    0.59008028    0.18900000
opls_144-316    H    0.15173979    0.97462988    0.63497976    0.08870000
opls_144-317    H    0.32569989    0.46309038    0.62992979    0.08870000
opls_702-318    H    0.30182004    0.68532043    0.69395998    0.12520000
opls_702-319    H    0.35945013    0.72505953    0.68614983    0.12520000
opls_702-320    H    0.31839996    0.84145978    0.69269023    0.12520000
opls_702-321    H    0.13985025    0.53600994    0.38707030    0.12520000
opls_702-322    H    0.19698009    0.46169997    0.39244984    0.12530000
opls_702-323    H    0.17875997    0.44596024    0.46137024    0.12530000
opls_140-324    H    0.38148001    0.15399006    0.00562981    0.12520000
opls_140-325    H    0.43533989    0.25051040    0.05592006    0.12520000
opls_140-326    H    0.40418006    0.26210995    0.96341005    0.12520000
opls_702-327    H    0.97018009    0.88860027    0.32307975    0.12520000
opls_702-328    H    0.91003004    0.95828036    0.30940016    0.12520000
opls_702-329    H    0.96193992    0.04895020    0.30993977    0.12530000
opls_702-330    H    0.51634997    0.00468993    0.83309006    0.12520000
opls_702-331    H    0.51719997    0.84691997    0.85306983    0.12520000
opls_702-332    H    0.45645015    0.92481002    0.80889990    0.12520000
opls_702-333    H    0.09474980    0.17122994    0.45614987    0.12530000
opls_702-334    H    0.07290991    0.05488974    0.39149013    0.12520000
opls_702-335    H    0.03367988    0.18676985    0.38071982    0.12520000
opls_146-336    H    0.13654013    0.79092039    0.75508029    0.18900000
opls_144-337    H    0.14394013    0.49458950    0.65051012    0.08870000
opls_146-338    H    0.24618997    0.48860959    0.75527022    0.18900000
opls_146-339    H    0.31029990    0.80159023    0.90992001    0.18900000
opls_144-340    H    0.34825991    0.47462988    0.86501995    0.08870000
opls_144-341    H    0.17430021    0.96309038    0.87006992    0.08870000
opls_702-342    H    0.19818006    0.18532043    0.80603973    0.12520000
opls_702-343    H    0.14054997    0.22505953    0.81384988    0.12520000
opls_702-344    H    0.18159994    0.34145978    0.80731006    0.12520000
opls_702-345    H    0.36015005    0.03600994    0.11292999    0.12520000
opls_702-346    H    0.30302001    0.96169997    0.10754987    0.12520000
opls_702-347    H    0.32123994    0.94596024    0.03863005    0.12520000
opls_140-348    H    0.11852009    0.65399006    0.49436989    0.12520000
opls_140-349    H    0.06466001    0.75051040    0.44408023    0.12530000
opls_140-350    H    0.09582024    0.76210995    0.53659024    0.12520000
opls_702-351    H    0.52982001    0.38858992    0.17691995    0.12520000
opls_702-352    H    0.58996986    0.45828036    0.19060013    0.12520000
opls_702-353    H    0.53806018    0.54895020    0.19005993    0.12520000
opls_702-354    H    0.98365033    0.50468993    0.66691024    0.12520000
opls_702-355    H    0.98280013    0.34691997    0.64692987    0.12520000
opls_702-356    H    0.04354995    0.42481002    0.69109980    0.12520000
opls_702-357    H    0.40524990    0.67122994    0.04384983    0.12520000
opls_702-358    H    0.42708999    0.55488974    0.10851016    0.12520000
opls_702-359    H    0.46631982    0.68676985    0.11927988    0.12520000
opls_146-360    H    0.63654013    0.29092039    0.75508029    0.18900000
opls_144-361    H    0.64394013    0.99458950    0.65051012    0.08870000
opls_146-362    H    0.74618997    0.98860959    0.75527022    0.18900000
opls_146-363    H    0.81029990    0.30159023    0.90992001    0.18900000
opls_144-364    H    0.84825991    0.97462988    0.86501995    0.08870000
opls_144-365    H    0.67430021    0.46309038    0.87006992    0.08870000
opls_702-366    H    0.69818006    0.68532043    0.80603973    0.12520000
opls_702-367    H    0.64054997    0.72505953    0.81384988    0.12520000
opls_702-368    H    0.68159994    0.84145978    0.80731006    0.12530000
opls_702-369    H    0.86015005    0.53600994    0.11292999    0.12520000
opls_702-370    H    0.80302001    0.46169997    0.10754987    0.12520000
opls_702-371    H    0.82123994    0.44596024    0.03863005    0.12520000
opls_140-372    H    0.61852009    0.15399006    0.49436989    0.12520000
opls_140-373    H    0.56466001    0.25051040    0.44408023    0.12520000
opls_140-374    H    0.59582024    0.26210995    0.53659024    0.12520000
opls_702-375    H    0.02982001    0.88860027    0.17691995    0.12520000
opls_702-376    H    0.08996986    0.95828036    0.19060013    0.12520000
opls_702-377    H    0.03806018    0.04895020    0.19005993    0.12520000
opls_702-378    H    0.48365033    0.00468993    0.66691024    0.12520000
opls_702-379    H    0.48280013    0.84691997    0.64692987    0.12530000
opls_702-380    H    0.54354995    0.92481002    0.69109980    0.12520000
opls_702-381    H    0.90524990    0.17122994    0.04384983    0.12520000
opls_702-382    H    0.92708999    0.05488974    0.10851016    0.12520000
opls_702-383    H    0.96631982    0.18676985    0.11927988    0.12520000
opls_750-384    N    0.25670019    0.98169997    0.41910019    -0.24440000
opls_750-385    N    0.08490018    0.37529972    0.13480018    -0.24450000
opls_750-386    N    0.39140002    0.36500052    0.41940017    -0.31360000
opls_750-387    N    0.75670019    0.48169997    0.41910019    -0.24440000
opls_750-388    N    0.58490018    0.87529972    0.13480018    -0.24450000
opls_750-389    N    0.89140002    0.86500052    0.41940017    -0.31360000
opls_750-390    N    0.74330011    0.98169997    0.08090011    -0.24430000
opls_750-391    N    0.91510012    0.37529972    0.36520011    -0.24450000
opls_750-392    N    0.60859988    0.36500052    0.08060013    -0.31300000
opls_750-393    N    0.24330011    0.48169997    0.08090011    -0.24440000
opls_750-394    N    0.41510012    0.87529972    0.36520011    -0.24450000
opls_750-395    N    0.10859988    0.86500052    0.08060013    -0.31300000
opls_750-396    N    0.74329981    0.01830003    0.58089981    -0.24440000
opls_750-397    N    0.91509982    0.62470028    0.86519982    -0.24450000
opls_750-398    N    0.60859998    0.63500052    0.58059983    -0.31300000
opls_750-399    N    0.24329981    0.51830003    0.58089981    -0.24430000
opls_750-400    N    0.41509982    0.12470028    0.86519982    -0.24450000
opls_750-401    N    0.10859998    0.13500052    0.58059983    -0.31300000
opls_750-402    N    0.25669989    0.01830003    0.91909989    -0.24430000
opls_750-403    N    0.08489988    0.62470028    0.63479989    -0.24450000
opls_750-404    N    0.39140012    0.63500052    0.91939987    -0.31300000
opls_750-405    N    0.75669989    0.51830003    0.91909989    -0.24440000
opls_750-406    N    0.58489988    0.12470028    0.63479989    -0.24450000
opls_750-407    N    0.89140012    0.13500052    0.91939987    -0.31300000
