#======================================================================
# Crystal Data Generated By AuToFF
#----------------------------------------------------------------------

data_AuToFF_phase_1

_cell_length_a                         18.6400
_cell_length_b                         18.6400
_cell_length_c                         3.9000
_cell_angle_alpha                      90.00
_cell_angle_beta                       90.00
_cell_angle_gamma                      120.00
_symmetry_space_group_name_H-M_alt     'P 1'
_symmetry_space_group_IT_number        1

loop_
_space_group_symop_operation_xyz
   'x, y, z'

loop_
   _atom_site_label
   _atom_site_type_symbol
   _atom_site_fract_x
   _atom_site_fract_y
   _atom_site_fract_z
   _atom_site_charge
opls_700-0    C    0.17755018    0.09232031    0.49795897    0.05430000
opls_145-1    C    0.22680998    0.06261031    0.34332051    -0.20110000
opls_145-2    C    0.31385000    0.10607017    0.37034103    -0.23660000
opls_916-3    C    0.35481989    0.18260007    0.54104872    0.16680000
opls_145-4    C    0.30789040    0.21467028    0.68825897    -0.23660000
opls_145-5    C    0.22081987    0.16966978    0.67095897    -0.20180000
opls_145-6    C    0.65029987    0.39871992    0.41077949    -0.09150000
opls_700-7    C    0.58276977    0.31652988    0.41666923    -0.03700000
opls_235-8    C    0.49510004    0.29938034    0.41831026    0.28710000
opls_145-9    C    0.04490995    0.95868042    0.48405897    -0.10060000
opls_700-10    C    0.08919016    0.04645007    0.48622051    0.06860000
opls_700-11    C    0.90767982    0.08522980    0.49795897    0.05430000
opls_145-12    C    0.93739014    0.16419982    0.34332051    -0.20110000
opls_145-13    C    0.89393017    0.20777986    0.37034103    -0.23660000
opls_916-14    C    0.81740031    0.17222015    0.54104872    0.16680000
opls_145-15    C    0.78532985    0.09321979    0.68825897    -0.23660000
opls_145-16    C    0.83032984    0.05115002    0.67095897    -0.20180000
opls_145-17    C    0.60127971    0.25157982    0.41077949    -0.09150000
opls_700-18    C    0.68346994    0.26624030    0.41666923    -0.03700000
opls_235-19    C    0.70062016    0.19571993    0.41831026    0.28710000
opls_145-20    C    0.04132006    0.08623026    0.48405897    -0.10060000
opls_700-21    C    0.95355028    0.04274004    0.48622051    0.06860000
opls_700-22    C    0.91477001    0.82244989    0.49795897    0.05430000
opls_145-23    C    0.83579988    0.77318988    0.34332051    -0.20110000
opls_145-24    C    0.79221984    0.68614997    0.37034103    -0.23660000
opls_916-25    C    0.82778011    0.64518039    0.54104872    0.16680000
opls_145-26    C    0.90677975    0.69210994    0.68825897    -0.23660000
opls_145-27    C    0.94885029    0.77918020    0.67095897    -0.20180000
opls_145-28    C    0.74841988    0.34970027    0.41077949    -0.09150000
opls_700-29    C    0.73375976    0.41722982    0.41666923    -0.03690000
opls_235-30    C    0.80428011    0.50490035    0.41831026    0.28710000
opls_145-31    C    0.91376976    0.95508994    0.48405897    -0.10060000
opls_700-32    C    0.95726010    0.91080989    0.48622051    0.06860000
opls_238-33    N    0.43798012    0.22171990    0.57395128    -0.40310000
opls_238-34    N    0.77828014    0.21625985    0.57395128    -0.40330000
opls_238-35    N    0.78374028    0.56202026    0.57395128    -0.40330000
opls_146-36    H    0.19994987    0.00901026    0.20401026    0.19690000
opls_146-37    H    0.34723022    0.08225013    0.26052051    0.19700000
opls_146-38    H    0.33663010    0.26960033    0.81803077    0.19680000
opls_146-39    H    0.18944998    0.19374008    0.79608974    0.19680000
opls_146-40    H    0.63822008    0.44644982    0.39994103    0.19690000
opls_146-41    H    0.07769031    0.92842032    0.48360000    0.19700000
opls_241-42    H    0.73527044    0.54021041    0.71998974    0.23600000
opls_146-43    H    0.99098988    0.19094006    0.20401026    0.19690000
opls_146-44    H    0.91775034    0.26498029    0.26052051    0.19680000
opls_146-45    H    0.73040032    0.06703026    0.81803077    0.19680000
opls_146-46    H    0.80626011    0.99571014    0.79608974    0.19680000
opls_146-47    H    0.55355031    0.19177016    0.39994103    0.19690000
opls_146-48    H    0.07157967    0.14926986    0.48360000    0.19700000
opls_241-49    H    0.45979029    0.19506019    0.71998974    0.23600000
opls_146-50    H    0.80906002    0.80005030    0.20401026    0.19680000
opls_146-51    H    0.73502029    0.65277020    0.26052051    0.19690000
opls_146-52    H    0.93296989    0.66337003    0.81803077    0.19680000
opls_146-53    H    0.00429022    0.81055040    0.79608974    0.19680000
opls_146-54    H    0.80823014    0.36178002    0.39994103    0.19680000
opls_146-55    H    0.85073033    0.92231044    0.48360000    0.19700000
opls_241-56    H    0.80494012    0.26473002    0.71998974    0.23600000
opls_236-57    O    0.87121014    0.51170033    0.56970000    -0.48560000
opls_236-58    O    0.48830020    0.35951027    0.56970000    -0.48570000
opls_236-59    O    0.64048997    0.12879002    0.56970000    -0.48560000
