#======================================================================
# Crystal Data Generated By AuToFF
#----------------------------------------------------------------------

data_AuToFF_phase_1

_cell_length_a                         21.9528
_cell_length_b                         21.9528
_cell_length_c                         3.4934
_cell_angle_alpha                      90.00
_cell_angle_beta                       90.00
_cell_angle_gamma                      120.00
_symmetry_space_group_name_H-M_alt     'P 1'
_symmetry_space_group_IT_number        1

loop_
_space_group_symop_operation_xyz
   'x, y, z'

loop_
   _atom_site_label
   _atom_site_type_symbol
   _atom_site_fract_x
   _atom_site_fract_y
   _atom_site_fract_z
   _atom_site_charge
opls_700-0    C    0.73770008    0.38172008    0.50000000    0.06080000
opls_700-1    C    0.26544021    0.61004025    0.50000000    0.06060000
opls_700-2    C    0.61829016    0.35598011    0.50000000    0.06080000
opls_700-3    C    0.38997009    0.65540026    0.50000000    0.06060000
opls_700-4    C    0.64401979    0.26229981    0.50000000    0.06080000
opls_700-5    C    0.34459999    0.73456002    0.50000000    0.06060000
opls_145-6    C    0.68993997    0.40492003    0.50000000    -0.07930000
opls_145-7    C    0.32128986    0.59827012    0.50000000    -0.09580000
opls_145-8    C    0.59508008    0.28502005    0.50000000    -0.07930000
opls_145-9    C    0.40173006    0.72302027    0.50000000    -0.09860000
opls_145-10    C    0.71497994    0.31005992    0.50000000    -0.07930000
opls_145-11    C    0.27697988    0.67871014    0.50000000    -0.09860000
opls_142-12    C    0.81107028    0.43212015    0.50000000    0.11090000
opls_142-13    C    0.19505986    0.55129005    0.50000000    0.11140000
opls_142-14    C    0.56788013    0.37895020    0.50000000    0.11090000
opls_142-15    C    0.44870986    0.64376005    0.50000000    0.11140000
opls_142-16    C    0.62105031    0.18893017    0.50000000    0.11090000
opls_142-17    C    0.35623985    0.80494990    0.50000000    0.11140000
opls_145-18    C    0.92719004    0.44813031    0.50000000    0.14740000
opls_145-19    C    0.07368996    0.52375014    0.50000000    0.13370000
opls_145-20    C    0.55187023    0.47906024    0.50000000    0.14740000
opls_145-21    C    0.47624993    0.54993983    0.50000000    0.13280000
opls_145-22    C    0.52093999    0.07280998    0.50000000    0.14740000
opls_145-23    C    0.45006011    0.92631004    0.50000000    0.13280000
opls_716-24    C    0.96466011    0.41268999    0.50000000    0.06740000
opls_145-25    C    0.03590010    0.55901004    0.50000000    -0.17370000
opls_716-26    C    0.58731030    0.55196016    0.50000000    0.06740000
opls_145-27    C    0.44099002    0.47688000    0.50000000    -0.17370000
opls_716-28    C    0.44804008    0.03533985    0.50000000    0.06740000
opls_145-29    C    0.52311991    0.96409996    0.50000000    -0.17370000
opls_716-30    C    0.03845997    0.45027004    0.50000000    0.06420000
opls_145-31    C    0.96328990    0.52207012    0.50000000    -0.18680000
opls_716-32    C    0.54972981    0.58819000    0.50000000    0.06430000
opls_145-33    C    0.47792972    0.44120982    0.50000000    -0.18680000
opls_716-34    C    0.41180976    0.96153996    0.50000000    0.06430000
opls_145-35    C    0.55878997    0.03671006    0.50000000    -0.18680000
opls_750-36    N    0.85370016    0.40816014    0.50000000    -0.26490000
opls_750-37    N    0.14652004    0.56726023    0.50000000    -0.27130000
opls_750-38    N    0.59184016    0.44554032    0.50000000    -0.26480000
opls_750-39    N    0.43274033    0.57926022    0.50000000    -0.27120000
opls_750-40    N    0.55445993    0.14630006    0.50000000    -0.26490000
opls_750-41    N    0.42073989    0.85348007    0.50000000    -0.27130000
opls_750-42    N    0.93784035    0.34286028    0.50000000    -0.36940000
opls_750-43    N    0.65713981    0.59498003    0.50000000    -0.36920000
opls_750-44    N    0.40501008    0.06216021    0.50000000    -0.36930000
opls_750-45    N    0.06584972    0.40774987    0.50000000    -0.36940000
opls_750-46    N    0.59225021    0.65811017    0.50000000    -0.36930000
opls_750-47    N    0.34189003    0.93414995    0.50000000    -0.36940000
opls_146-48    H    0.70859980    0.46093980    0.50000000    0.10870000
opls_146-49    H    0.31099986    0.54456997    0.50000000    0.11060000
opls_146-50    H    0.53905988    0.24765986    0.50000000    0.10860000
opls_146-51    H    0.45542988    0.76642990    0.50000000    0.11060000
opls_146-52    H    0.75234006    0.29139981    0.50000000    0.10860000
opls_146-53    H    0.23357025    0.68900013    0.50000000    0.11060000
opls_144-54    H    0.82792008    0.48745981    0.50000000    0.09640000
opls_144-55    H    0.18506033    0.49789024    0.50000000    0.11200000
opls_144-56    H    0.51253995    0.34046018    0.50000000    0.09640000
opls_144-57    H    0.50211021    0.68717020    0.50000000    0.11200000
opls_144-58    H    0.65953997    0.17208001    0.50000000    0.09640000
opls_144-59    H    0.31283018    0.81494008    0.50000000    0.11200000
opls_146-60    H    0.93699995    0.55238990    0.50000000    0.09790000
opls_146-61    H    0.06370004    0.61604024    0.50000000    0.11130000
opls_146-62    H    0.44760996    0.38460988    0.50000000    0.08890000
opls_146-63    H    0.38395995    0.44766007    0.50000000    0.11220000
opls_146-64    H    0.61539009    0.06300022    0.50000000    0.08890000
opls_146-65    H    0.55234028    0.93630021    0.50000000    0.11310000
opls_202-66    S    0.67835018    0.68067998    0.50000000    0.42470000
opls_202-67    S    0.31932005    0.99767038    0.50000000    0.42460000
opls_202-68    S    0.00233004    0.32165016    0.50000000    0.42470000
