#======================================================================
# Crystal Data Generated By AuToFF
#----------------------------------------------------------------------

data_AuToFF_phase_1

_cell_length_a                         26.9733
_cell_length_b                         26.9733
_cell_length_c                         6.3570
_cell_angle_alpha                      90.00
_cell_angle_beta                       90.00
_cell_angle_gamma                      120.00
_symmetry_space_group_name_H-M_alt     'P 1'
_symmetry_space_group_IT_number        1

loop_
_space_group_symop_operation_xyz
   'x, y, z'

loop_
   _atom_site_label
   _atom_site_type_symbol
   _atom_site_fract_x
   _atom_site_fract_y
   _atom_site_fract_z
   _atom_site_charge
opls_166-0    C    0.13143013    0.13410997    0.07991034    0.27240000
opls_145-1    C    0.16533022    0.16439008    0.90795029    -0.21730000
opls_145-2    C    0.22630996    0.19045992    0.91195061    -0.12920000
opls_145-3    C    0.25628004    0.18811998    0.08840963    0.18800000
opls_145-4    C    0.22153021    0.15699011    0.25834041    -0.13090000
opls_145-5    C    0.16047011    0.13035990    0.25540035    -0.22160000
opls_142-6    C    0.35613979    0.24969991    0.96402076    0.01750000
opls_700-7    C    0.41890999    0.28165000    0.00963977    0.06230000
opls_145-8    C    0.45730005    0.32058010    0.85966966    -0.12980000
opls_145-9    C    0.51756009    0.35354990    0.89156992    -0.22160000
opls_166-10    C    0.54276015    0.34820005    0.07428976    0.27100000
opls_145-11    C    0.50551993    0.30940009    0.22585968    -0.21510000
opls_145-12    C    0.44495997    0.27705017    0.19342929    -0.11080000
opls_642-13    C    0.63361019    0.35454007    0.12588013    0.61440000
opls_642-14    C    0.03639003    0.05348988    0.10753972    0.59610000
opls_166-15    C    0.12407012    0.98602028    0.56899009    0.27110000
opls_145-16    C    0.15680984    0.02200983    0.73378952    -0.21720000
opls_145-17    C    0.21771022    0.05645012    0.71972943    -0.12920000
opls_145-18    C    0.24846004    0.05648009    0.54201982    0.18760000
opls_145-19    C    0.21494996    0.01991005    0.37898065    -0.12920000
opls_145-20    C    0.15411009    0.98505023    0.39196948    -0.21730000
opls_142-21    C    0.34754003    0.12434010    0.66120969    0.08410000
opls_700-22    C    0.41045010    0.15032004    0.62560013    0.05970000
opls_145-23    C    0.44918996    0.18055006    0.78834985    -0.12510000
opls_145-24    C    0.50965022    0.20521020    0.76929055    -0.22270000
opls_166-25    C    0.53440003    0.20080986    0.58411043    0.26780000
opls_145-26    C    0.49671006    0.17143987    0.41873053    -0.22210000
opls_145-27    C    0.43613997    0.14707983    0.43918043    -0.12940000
opls_642-28    C    0.65018020    0.37019019    0.60274972    0.59610000
opls_642-29    C    0.03275023    0.97848033    0.60921032    0.59610000
opls_166-30    C    0.86588989    0.99732016    0.07991034    0.27240000
opls_145-31    C    0.83560998    0.00094009    0.90795029    -0.21730000
opls_145-32    C    0.80954004    0.03584999    0.91195061    -0.12920000
opls_145-33    C    0.81187995    0.06816010    0.08840963    0.18800000
opls_145-34    C    0.84300997    0.06454017    0.25834041    -0.13090000
opls_145-35    C    0.86964017    0.03011016    0.25540035    -0.22160000
opls_142-36    C    0.75030004    0.10643993    0.96402076    0.01750000
opls_700-37    C    0.71834984    0.13725986    0.00963977    0.06230000
opls_145-38    C    0.67941985    0.13672004    0.85966966    -0.12980000
opls_145-39    C    0.64644981    0.16400994    0.89156992    -0.22160000
opls_166-40    C    0.65179993    0.19456017    0.07428976    0.27100000
opls_145-41    C    0.69060010    0.19612013    0.22585968    -0.21510000
opls_145-42    C    0.72294978    0.16790984    0.19342929    -0.11080000
opls_642-43    C    0.64546007    0.27906990    0.12588013    0.61440000
opls_642-44    C    0.94650997    0.98289993    0.10753972    0.59610000
opls_166-45    C    0.01397988    0.13805012    0.56899009    0.27110000
opls_145-46    C    0.97799013    0.13480006    0.73378952    -0.21720000
opls_145-47    C    0.94354994    0.16125989    0.71972943    -0.12920000
opls_145-48    C    0.94352000    0.19198007    0.54201982    0.18760000
opls_145-49    C    0.98009020    0.19504006    0.37898065    -0.12920000
opls_145-50    C    0.01495014    0.16906012    0.39196948    -0.21730000
opls_142-51    C    0.87565993    0.22319984    0.66120969    0.08410000
opls_700-52    C    0.84967990    0.26012990    0.62560013    0.05970000
opls_145-53    C    0.81945006    0.26863991    0.78834985    -0.12510000
opls_145-54    C    0.79478999    0.30444024    0.76929055    -0.22270000
opls_166-55    C    0.79919009    0.33359019    0.58411043    0.26780000
opls_145-56    C    0.82855995    0.32527025    0.41873053    -0.22210000
opls_145-57    C    0.85292027    0.28906024    0.43918043    -0.12940000
opls_642-58    C    0.62981004    0.27998986    0.60274972    0.59610000
opls_642-59    C    0.02151975    0.05426986    0.60921032    0.59610000
opls_166-60    C    0.00268019    0.86857030    0.07991034    0.27240000
opls_145-61    C    0.99906002    0.83467026    0.90795029    -0.21730000
opls_145-62    C    0.96415001    0.77369009    0.91195061    -0.12920000
opls_145-63    C    0.93184001    0.74371992    0.08840963    0.18800000
opls_145-64    C    0.93546004    0.77847014    0.25834041    -0.13090000
opls_145-65    C    0.96989009    0.83952994    0.25540035    -0.22160000
opls_142-66    C    0.89356017    0.64386016    0.96402076    0.01750000
opls_700-67    C    0.86274017    0.58109014    0.00963977    0.06230000
opls_145-68    C    0.86328010    0.54269986    0.85966966    -0.12980000
opls_145-69    C    0.83599010    0.48244017    0.89156992    -0.22150000
opls_166-70    C    0.80544014    0.45724020    0.07428976    0.27100000
opls_145-71    C    0.80388019    0.49448020    0.22585968    -0.21500000
opls_145-72    C    0.83208989    0.55503999    0.19342929    -0.11080000
opls_642-73    C    0.72093011    0.36639003    0.12588013    0.61440000
opls_642-74    C    0.01710000    0.96361019    0.10753972    0.59610000
opls_166-75    C    0.86194984    0.87593003    0.56899009    0.27110000
opls_145-76    C    0.86520003    0.84319011    0.73378952    -0.21720000
opls_145-77    C    0.83873984    0.78228999    0.71972943    -0.12920000
opls_145-78    C    0.80802017    0.75154027    0.54201982    0.18760000
opls_145-79    C    0.80495983    0.78504989    0.37898065    -0.12920000
opls_145-80    C    0.83093998    0.84589008    0.39196948    -0.21730000
opls_142-81    C    0.77680004    0.65246006    0.66120969    0.08410000
opls_700-82    C    0.73986999    0.58955006    0.62560013    0.05970000
opls_145-83    C    0.73135998    0.55081003    0.78834985    -0.12510000
opls_145-84    C    0.69556001    0.49034999    0.76929055    -0.22270000
opls_166-85    C    0.66640988    0.46559995    0.58411043    0.26780000
opls_145-86    C    0.67472999    0.50328987    0.41873053    -0.22210000
opls_145-87    C    0.71094014    0.56385994    0.43918043    -0.12940000
opls_642-88    C    0.72001013    0.34981995    0.60274972    0.59630000
opls_642-89    C    0.94573024    0.96725024    0.60921032    0.59610000
opls_180-90    O    0.07173978    0.11233987    0.07663992    -0.25350000
opls_180-91    O    0.60238997    0.38285011    0.10184993    -0.25470000
opls_180-92    O    0.06411000    0.95051020    0.58002989    -0.25470000
opls_180-93    O    0.59368005    0.22151017    0.56686959    -0.25270000
opls_180-94    O    0.88766005    0.95939992    0.07663992    -0.25350000
opls_180-95    O    0.61714994    0.21954009    0.10184993    -0.25470000
opls_180-96    O    0.04949026    0.11360017    0.58002989    -0.25470000
opls_180-97    O    0.77849014    0.37217011    0.56686959    -0.25280000
opls_180-98    O    0.04060017    0.92826021    0.07663992    -0.25350000
opls_180-99    O    0.78045994    0.39761023    0.10184993    -0.25460000
opls_180-100    O    0.88639995    0.93589006    0.58002989    -0.25470000
opls_180-101    O    0.62783003    0.40632015    0.56686959    -0.25280000
opls_750-102    N    0.31840014    0.21623995    0.10251062    -0.30720000
opls_641-103    N    0.98201004    0.03818009    0.10038068    -0.38460000
opls_750-104    N    0.31033008    0.09044991    0.52251062    -0.31280000
opls_641-105    N    0.61065014    0.31601023    0.59526034    -0.38460000
opls_641-106    N    0.97743003    0.94308026    0.60227938    -0.38460000
opls_641-107    N    0.61034030    0.29935024    0.12484977    -0.37420000
opls_750-108    N    0.78376004    0.10215989    0.10251062    -0.30720000
opls_641-109    N    0.96181997    0.94383028    0.10038068    -0.38460000
opls_750-110    N    0.90954998    0.21988000    0.52251062    -0.31280000
opls_641-111    N    0.68398995    0.29463997    0.59526034    -0.38460000
opls_641-112    N    0.05691984    0.03434996    0.60227938    -0.38460000
opls_641-113    N    0.70065003    0.31099002    0.12484977    -0.37430000
opls_750-114    N    0.89784019    0.68160017    0.10251062    -0.30720000
opls_641-115    N    0.05617020    0.01799006    0.10038068    -0.38460000
opls_750-116    N    0.78011994    0.68967010    0.52251062    -0.31280000
opls_641-117    N    0.70536012    0.38935023    0.59526034    -0.38460000
opls_641-118    N    0.96564997    0.02257020    0.60227938    -0.38460000
opls_641-119    N    0.68901025    0.38966016    0.12484977    -0.37430000
opls_146-120    H    0.14324016    0.16823005    0.76940066    0.08260000
opls_146-121    H    0.25063992    0.21423006    0.77319962    0.07990000
opls_146-122    H    0.24308009    0.15446995    0.40033978    0.11910000
opls_146-123    H    0.13521006    0.10755982    0.39383986    0.11960000
opls_144-124    H    0.34310012    0.25787001    0.81179015    0.10690000
opls_146-125    H    0.44007015    0.32634005    0.71215982    0.11200000
opls_146-126    H    0.54594996    0.38455005    0.77215039    0.12540000
opls_146-127    H    0.52426000    0.30494025    0.37196948    0.11130000
opls_146-128    H    0.41737000    0.24729019    0.31727073    0.12560000
opls_146-129    H    0.13437992    0.02272988    0.87607991    0.11410000
opls_146-130    H    0.24141004    0.08366981    0.85375964    0.08690000
opls_146-131    H    0.23708010    0.01802988    0.23742961    0.06500000
opls_146-132    H    0.12922016    0.95615029    0.26251062    0.08010000
opls_144-133    H    0.33413999    0.13232998    0.81300928    0.10790000
opls_146-134    H    0.43197001    0.18439988    0.93854019    0.11120000
opls_146-135    H    0.53782988    0.22730009    0.90272927    0.11880000
opls_146-136    H    0.51565003    0.16753997    0.27223061    0.11270000
opls_146-137    H    0.40829973    0.12407982    0.30527922    0.06950000
opls_146-138    H    0.83176979    0.97500980    0.76940066    0.08260000
opls_146-139    H    0.78576993    0.03640993    0.77319962    0.07990000
opls_146-140    H    0.84552990    0.08860997    0.40033978    0.11910000
opls_146-141    H    0.89244011    0.02764992    0.39383986    0.11960000
opls_144-142    H    0.74213018    0.08523020    0.81179015    0.10690000
opls_146-143    H    0.67366007    0.11372988    0.71215982    0.11200000
opls_146-144    H    0.61544986    0.16139987    0.77215039    0.12540000
opls_146-145    H    0.69506003    0.21932006    0.37196948    0.11130000
opls_146-146    H    0.75270980    0.17007983    0.31727073    0.12560000
opls_146-147    H    0.97727002    0.11165022    0.87607991    0.11410000
opls_146-148    H    0.91633007    0.15774013    0.85375964    0.08690000
opls_146-149    H    0.98196994    0.21904993    0.23742961    0.06500000
opls_146-150    H    0.04384985    0.17307004    0.26251062    0.08010000
opls_144-151    H    0.86766985    0.20180988    0.81300928    0.10790000
opls_146-152    H    0.81559995    0.24757016    0.93854019    0.11120000
opls_146-153    H    0.77270014    0.31053025    0.90272927    0.11880000
opls_146-154    H    0.83246024    0.34811015    0.27223061    0.11270000
opls_146-155    H    0.87592023    0.28422025    0.30527922    0.06730000
opls_146-156    H    0.02499005    0.85676014    0.76940066    0.08260000
opls_146-157    H    0.96359015    0.74936001    0.77319962    0.07990000
opls_146-158    H    0.91139001    0.75692008    0.40033978    0.11910000
opls_146-159    H    0.97235020    0.86479026    0.39383986    0.11960000
opls_144-160    H    0.91477028    0.65690022    0.81179015    0.10690000
opls_146-161    H    0.88627016    0.55993007    0.71215982    0.11200000
opls_146-162    H    0.83860019    0.45405008    0.77215039    0.12540000
opls_146-163    H    0.78068017    0.47574013    0.37196948    0.11130000
opls_146-164    H    0.82991983    0.58262998    0.31727073    0.12560000
opls_146-165    H    0.88835006    0.86561990    0.87607991    0.11410000
opls_146-166    H    0.84225989    0.75859006    0.85375964    0.08690000
opls_146-167    H    0.78094996    0.76292019    0.23742961    0.06500000
opls_146-168    H    0.82693020    0.87078010    0.26251062    0.08010000
opls_144-169    H    0.79819016    0.66586014    0.81300928    0.10790000
opls_146-170    H    0.75243004    0.56802996    0.93854019    0.11120000
opls_146-171    H    0.68947019    0.46217009    0.90272927    0.11880000
opls_146-172    H    0.65189010    0.48434988    0.27223061    0.11270000
opls_146-173    H    0.71578004    0.59169993    0.30527922    0.06950000
