#======================================================================
# Crystal Data Generated By AuToFF
#----------------------------------------------------------------------

data_AuToFF_phase_1

_cell_length_a                         42.3000
_cell_length_b                         42.3000
_cell_length_c                         4.1000
_cell_angle_alpha                      90.00
_cell_angle_beta                       90.00
_cell_angle_gamma                      120.00
_symmetry_space_group_name_H-M_alt     'P 1'
_symmetry_space_group_IT_number        1

loop_
_space_group_symop_operation_xyz
   'x, y, z'

loop_
   _atom_site_label
   _atom_site_type_symbol
   _atom_site_fract_x
   _atom_site_fract_y
   _atom_site_fract_z
   _atom_site_charge
opls_916-0    C    0.56155999    0.96131998    0.60051951    0.17190000
opls_916-1    C    0.53264991    0.99774001    0.73894878    0.17480000
opls_145-2    C    0.46628009    0.96865001    0.77254878    -0.16860000
opls_145-3    C    0.49794014    0.96649020    0.77088049    -0.16710000
opls_145-4    C    0.58417023    0.94944022    0.73801951    -0.18010000
opls_145-5    C    0.58122004    0.91656018    0.64662927    -0.16630000
opls_145-6    C    0.55520018    0.89355025    0.41737073    0.20010000
opls_145-7    C    0.53225016    0.90533010    0.28360976    -0.16860000
opls_145-8    C    0.53568005    0.93862015    0.37007073    -0.16640000
opls_142-9    C    0.57493017    0.85135017    0.39483902    0.07740000
opls_700-10    C    0.57150991    0.81579003    0.34563902    0.05800000
opls_145-11    C    0.54323017    0.78715017    0.16854878    -0.11730000
opls_145-12    C    0.54111004    0.75336003    0.15502927    -0.12680000
opls_700-13    C    0.56624016    0.74676022    0.32376098    0.05320000
opls_145-14    C    0.59498006    0.77570007    0.49446098    -0.11050000
opls_145-15    C    0.59768993    0.80962999    0.50012927    -0.11680000
opls_142-16    C    0.56154007    0.71022008    0.33068049    0.07170000
opls_145-17    C    0.57578991    0.66748005    0.55262927    0.20940000
opls_145-18    C    0.54962000    0.63610004    0.38612927    -0.16570000
opls_145-19    C    0.54781001    0.60274011    0.43036098    -0.16920000
opls_916-20    C    0.57127992    0.59900002    0.64946098    0.16950000
opls_145-21    C    0.59684015    0.62996020    0.81920000    -0.17070000
opls_145-22    C    0.59934012    0.66358000    0.76779024    -0.16640000
opls_916-23    C    0.03868013    0.60024017    0.60051951    0.17190000
opls_916-24    C    0.00225999    0.53491004    0.73894878    0.17480000
opls_145-25    C    0.03135006    0.49763013    0.77254878    -0.16860000
opls_145-26    C    0.03351012    0.53145003    0.77088049    -0.16720000
opls_145-27    C    0.05056001    0.63472996    0.73801951    -0.18010000
opls_145-28    C    0.08344002    0.66466018    0.64662927    -0.16630000
opls_145-29    C    0.10645008    0.66165004    0.41737073    0.20010000
opls_145-30    C    0.09466994    0.62692003    0.28360976    -0.16860000
opls_145-31    C    0.06138010    0.59705996    0.37007073    -0.16630000
opls_142-32    C    0.14865016    0.72358022    0.39483902    0.07740000
opls_700-33    C    0.18421022    0.75572020    0.34563902    0.05800000
opls_145-34    C    0.21284992    0.75607999    0.16854878    -0.11730000
opls_145-35    C    0.24664010    0.78775018    0.15502927    -0.12680000
opls_700-36    C    0.25324008    0.81948016    0.32376098    0.05320000
opls_145-37    C    0.22430008    0.81928006    0.49446098    -0.11050000
opls_145-38    C    0.19036996    0.78806001    0.50012927    -0.11680000
opls_142-39    C    0.28978016    0.85132014    0.33068049    0.07170000
opls_145-40    C    0.33252012    0.90831021    0.55262927    0.20930000
opls_145-41    C    0.36389996    0.91352002    0.38612927    -0.16570000
opls_145-42    C    0.39726011    0.94507010    0.43036098    -0.16920000
opls_916-43    C    0.40100009    0.97228009    0.64946098    0.16940000
opls_145-44    C    0.37004001    0.96688002    0.81920000    -0.17070000
opls_145-45    C    0.33642003    0.93576015    0.76779024    -0.16640000
opls_916-46    C    0.39976001    0.43844012    0.60051951    0.17190000
opls_916-47    C    0.46508987    0.46734995    0.73894878    0.17480000
opls_145-48    C    0.50236999    0.53372013    0.77254878    -0.16860000
opls_145-49    C    0.46855011    0.50206004    0.77088049    -0.16720000
opls_145-50    C    0.36527013    0.41583010    0.73801951    -0.18020000
opls_145-51    C    0.33533997    0.41878018    0.64662927    -0.16630000
opls_145-52    C    0.33834987    0.44479998    0.41737073    0.20010000
opls_145-53    C    0.37308003    0.46775014    0.28360976    -0.16860000
opls_145-54    C    0.40293998    0.46432016    0.37007073    -0.16640000
opls_142-55    C    0.27642019    0.42507016    0.39483902    0.07740000
opls_700-56    C    0.24428001    0.42849004    0.34563902    0.05800000
opls_145-57    C    0.24392004    0.45677011    0.16854878    -0.11730000
opls_145-58    C    0.21225000    0.45889006    0.15502927    -0.12680000
opls_700-59    C    0.18052004    0.43376017    0.32376098    0.05320000
opls_145-60    C    0.18072000    0.40502014    0.49446098    -0.11050000
opls_145-61    C    0.21194011    0.40231000    0.50012927    -0.11680000
opls_142-62    C    0.14867991    0.43846005    0.33068049    0.07170000
opls_145-63    C    0.09169011    0.42421001    0.55262927    0.20940000
opls_145-64    C    0.08648004    0.45037995    0.38612927    -0.16570000
opls_145-65    C    0.05493002    0.45219007    0.43036098    -0.16920000
opls_916-66    C    0.02772013    0.42872016    0.64946098    0.16940000
opls_145-67    C    0.03311998    0.40316006    0.81920000    -0.17070000
opls_145-68    C    0.06423999    0.40066012    0.76779024    -0.16640000
opls_916-69    C    0.43844001    0.03868002    0.60051951    0.17190000
opls_916-70    C    0.46735009    0.00225999    0.73894878    0.17480000
opls_145-71    C    0.53371991    0.03134999    0.77254878    -0.16860000
opls_145-72    C    0.50206000    0.03351007    0.77088049    -0.16720000
opls_145-73    C    0.41582991    0.05056006    0.73801951    -0.18020000
opls_145-74    C    0.41878009    0.08344009    0.64662927    -0.16630000
opls_145-75    C    0.44479995    0.10645003    0.41737073    0.20010000
opls_145-76    C    0.46774984    0.09466990    0.28360976    -0.16860000
opls_145-77    C    0.46432008    0.06138012    0.37007073    -0.16640000
opls_142-78    C    0.42506997    0.14865011    0.39483902    0.07740000
opls_700-79    C    0.42849009    0.18420997    0.34563902    0.05800000
opls_145-80    C    0.45676997    0.21285010    0.16854878    -0.11730000
opls_145-81    C    0.45888996    0.24663997    0.15502927    -0.12680000
opls_700-82    C    0.43375998    0.25324005    0.32376098    0.05320000
opls_145-83    C    0.40501994    0.22429993    0.49446098    -0.11050000
opls_145-84    C    0.40231007    0.19037001    0.50012927    -0.11680000
opls_142-85    C    0.43845993    0.28977992    0.33068049    0.07170000
opls_145-86    C    0.42420986    0.33251995    0.55262927    0.20930000
opls_145-87    C    0.45038000    0.36389996    0.38612927    -0.16570000
opls_145-88    C    0.45219013    0.39726017    0.43036098    -0.16920000
opls_916-89    C    0.42872008    0.40099998    0.64946098    0.16940000
opls_145-90    C    0.40315999    0.37004008    0.81920000    -0.17060000
opls_145-91    C    0.40065988    0.33642000    0.76779024    -0.16640000
opls_916-92    C    0.96132001    0.39976011    0.60051951    0.17190000
opls_916-93    C    0.99774001    0.46508996    0.73894878    0.17480000
opls_145-94    C    0.96865008    0.50237014    0.77254878    -0.16860000
opls_145-95    C    0.96648988    0.46854997    0.77088049    -0.16720000
opls_145-96    C    0.94943999    0.36527004    0.73801951    -0.18010000
opls_145-97    C    0.91656012    0.33534009    0.64662927    -0.16630000
opls_145-98    C    0.89354992    0.33834996    0.41737073    0.20020000
opls_145-99    C    0.90533006    0.37307997    0.28360976    -0.16860000
opls_145-100    C    0.93862014    0.40294004    0.37007073    -0.16640000
opls_142-101    C    0.85134998    0.27642006    0.39483902    0.07750000
opls_700-102    C    0.81578992    0.24428007    0.34563902    0.05800000
opls_145-103    C    0.78715008    0.24392001    0.16854878    -0.11730000
opls_145-104    C    0.75336003    0.21225009    0.15502927    -0.12680000
opls_700-105    C    0.74676006    0.18052012    0.32376098    0.05320000
opls_145-106    C    0.77569992    0.18071994    0.49446098    -0.11050000
opls_145-107    C    0.80963004    0.21193999    0.50012927    -0.11670000
opls_142-108    C    0.71021997    0.14868013    0.33068049    0.07170000
opls_145-109    C    0.66748002    0.09169006    0.55262927    0.20940000
opls_145-110    C    0.63610004    0.08647998    0.38612927    -0.16570000
opls_145-111    C    0.60273989    0.05492990    0.43036098    -0.16920000
opls_916-112    C    0.59899991    0.02771991    0.64946098    0.16940000
opls_145-113    C    0.62995999    0.03311998    0.81920000    -0.17070000
opls_145-114    C    0.66358011    0.06424012    0.76779024    -0.16640000
opls_916-115    C    0.60024012    0.56156015    0.60051951    0.17190000
opls_916-116    C    0.53491013    0.53265005    0.73894878    0.17480000
opls_145-117    C    0.49763014    0.46628015    0.77254878    -0.16860000
opls_145-118    C    0.53144989    0.49793996    0.77088049    -0.16720000
opls_145-119    C    0.63473000    0.58417017    0.73801951    -0.18020000
opls_145-120    C    0.66465993    0.58122009    0.64662927    -0.16630000
opls_145-121    C    0.66165013    0.55520002    0.41737073    0.20020000
opls_145-122    C    0.62692010    0.53225013    0.28360976    -0.16850000
opls_145-123    C    0.59706015    0.53568011    0.37007073    -0.16640000
opls_142-124    C    0.72357995    0.57493011    0.39483902    0.07740000
opls_700-125    C    0.75571999    0.57150996    0.34563902    0.05800000
opls_145-126    C    0.75608009    0.54323016    0.16854878    -0.11730000
opls_145-127    C    0.78775000    0.54110994    0.15502927    -0.12670000
opls_700-128    C    0.81948010    0.56624010    0.32376098    0.05320000
opls_145-129    C    0.81928014    0.59498014    0.49446098    -0.11040000
opls_145-130    C    0.78805989    0.59769000    0.50012927    -0.11680000
opls_142-131    C    0.85131986    0.56153995    0.33068049    0.07170000
opls_145-132    C    0.90830989    0.57578999    0.55262927    0.20930000
opls_145-133    C    0.91351996    0.54962005    0.38612927    -0.16570000
opls_145-134    C    0.94507011    0.54781020    0.43036098    -0.16900000
opls_916-135    C    0.97228001    0.57128011    0.64946098    0.16940000
opls_145-136    C    0.96688002    0.59683994    0.81920000    -0.17070000
opls_145-137    C    0.93576015    0.59934016    0.76779024    -0.16640000
opls_750-138    N    0.55016004    0.85950022    0.32271951    -0.28940000
opls_750-139    N    0.58046000    0.70251007    0.52748049    -0.27310000
opls_239-140    N    0.56912996    0.56438002    0.69305122    -0.12840000
opls_750-141    N    0.14050000    0.69066005    0.32271951    -0.28930000
opls_750-142    N    0.29748992    0.87795005    0.52748049    -0.27300000
opls_239-143    N    0.43561997    0.00475011    0.69305122    -0.12840000
opls_750-144    N    0.30934009    0.44983999    0.32271951    -0.28940000
opls_750-145    N    0.12204998    0.41954016    0.52748049    -0.27310000
opls_239-146    N    0.99524997    0.43087014    0.69305122    -0.12830000
opls_750-147    N    0.44984010    0.14050005    0.32271951    -0.28940000
opls_750-148    N    0.41954000    0.29748993    0.52748049    -0.27320000
opls_239-149    N    0.43087004    0.43561998    0.69305122    -0.12840000
opls_750-150    N    0.85950000    0.30933995    0.32271951    -0.28940000
opls_750-151    N    0.70251008    0.12204995    0.52748049    -0.27310000
opls_239-152    N    0.56438017    0.99525017    0.69305122    -0.12840000
opls_750-153    N    0.69065991    0.55016001    0.32271951    -0.28940000
opls_750-154    N    0.87795015    0.58046012    0.52748049    -0.27320000
opls_239-155    N    0.00475017    0.56913013    0.69305122    -0.12840000
opls_146-156    H    0.44025018    0.94345024    0.79200000    0.11230000
opls_146-157    H    0.49545003    0.93970006    0.78861951    0.11170000
opls_146-158    H    0.60250001    0.96452012    0.93580000    0.11820000
opls_146-159    H    0.59776005    0.90746999    0.77503902    0.11100000
opls_146-160    H    0.51282008    0.88879004    0.09580000    0.11110000
opls_146-161    H    0.51829011    0.94739014    0.25282927    0.11120000
opls_144-162    H    0.60065009    0.87104013    0.51730976    0.04990000
opls_146-163    H    0.52355998    0.79204004    0.04031951    0.11100000
opls_146-164    H    0.51973998    0.73133009    0.01189024    0.10650000
opls_146-165    H    0.61415014    0.77051020    0.62770000    0.11150000
opls_146-166    H    0.61935003    0.83197003    0.63867073    0.10680000
opls_144-167    H    0.54068007    0.68996014    0.16483902    0.05810000
opls_146-168    H    0.53183003    0.63824019    0.20662927    0.11030000
opls_146-169    H    0.52848989    0.57921997    0.28810976    0.10980000
opls_146-170    H    0.61355001    0.62763005    0.00729024    0.11490000
opls_146-171    H    0.61854994    0.68728003    0.90841951    0.11070000
opls_146-172    H    0.05655012    0.49680001    0.79200000    0.11230000
opls_146-173    H    0.06030009    0.55575007    0.78861951    0.11170000
opls_146-174    H    0.03548009    0.63798004    0.93580000    0.11810000
opls_146-175    H    0.09253019    0.69029017    0.77503902    0.11100000
opls_146-176    H    0.11121004    0.62403000    0.09580000    0.11110000
opls_146-177    H    0.05261011    0.57090012    0.25282927    0.11130000
opls_144-178    H    0.12896011    0.72961005    0.51730976    0.04990000
opls_146-179    H    0.20796004    0.73152008    0.04031951    0.11120000
opls_146-180    H    0.26867000    0.78840997    0.01189024    0.10650000
opls_146-181    H    0.22949005    0.84364015    0.62770000    0.11150000
opls_146-182    H    0.16802996    0.78738002    0.63867073    0.10680000
opls_144-183    H    0.31003997    0.85072013    0.16483902    0.05820000
opls_146-184    H    0.36176006    0.89359010    0.20662927    0.11030000
opls_146-185    H    0.42077999    0.94927015    0.28810976    0.10980000
opls_146-186    H    0.37236994    0.98592002    0.00729024    0.11500000
opls_146-187    H    0.31272020    0.93127020    0.90841951    0.11070000
opls_146-188    H    0.50320007    0.55975003    0.79200000    0.11230000
opls_146-189    H    0.44425002    0.50455015    0.78861951    0.11170000
opls_146-190    H    0.36202003    0.39750011    0.93580000    0.11810000
opls_146-191    H    0.30971013    0.40224012    0.77503902    0.11100000
opls_146-192    H    0.37596988    0.48717996    0.09580000    0.11110000
opls_146-193    H    0.42909992    0.48171001    0.25282927    0.11120000
opls_144-194    H    0.27038994    0.39935009    0.51730976    0.04990000
opls_146-195    H    0.26848012    0.47644015    0.04031951    0.11100000
opls_146-196    H    0.21159002    0.48025994    0.01189024    0.10760000
opls_146-197    H    0.15635995    0.38584992    0.62770000    0.11150000
opls_146-198    H    0.21262001    0.38064995    0.63867073    0.10680000
opls_144-199    H    0.14928010    0.45932000    0.16483902    0.05810000
opls_146-200    H    0.10641005    0.46816998    0.20662927    0.11030000
opls_146-201    H    0.05073002    0.47151015    0.28810976    0.10980000
opls_146-202    H    0.01408005    0.38644993    0.00729024    0.11490000
opls_146-203    H    0.06872999    0.38145005    0.90841951    0.11070000
opls_146-204    H    0.55974996    0.05655003    0.79200000    0.11230000
opls_146-205    H    0.50454997    0.06029994    0.78861951    0.11170000
opls_146-206    H    0.39749999    0.03547988    0.93580000    0.11810000
opls_146-207    H    0.40223995    0.09253001    0.77503902    0.11100000
opls_146-208    H    0.48717992    0.11120996    0.09580000    0.11120000
opls_146-209    H    0.48171003    0.05261013    0.25282927    0.11120000
opls_144-210    H    0.39935005    0.12896014    0.51730976    0.04990000
opls_146-211    H    0.47644002    0.20795996    0.04031951    0.11100000
opls_146-212    H    0.48026002    0.26866991    0.01189024    0.10650000
opls_146-213    H    0.38585000    0.22949007    0.62770000    0.11150000
opls_146-214    H    0.38064997    0.16802997    0.63867073    0.10680000
opls_144-215    H    0.45932007    0.31004014    0.16483902    0.05810000
opls_146-216    H    0.46817011    0.36176008    0.20662927    0.11040000
opls_146-217    H    0.47151011    0.42078003    0.28810976    0.10980000
opls_146-218    H    0.38644999    0.37236995    0.00729024    0.11490000
opls_146-219    H    0.38145006    0.31271997    0.90841951    0.11070000
opls_146-220    H    0.94344988    0.50319999    0.79200000    0.11230000
opls_146-221    H    0.93969991    0.44424993    0.78861951    0.11170000
opls_146-222    H    0.96451991    0.36201996    0.93580000    0.11810000
opls_146-223    H    0.90746995    0.30971010    0.77503902    0.11100000
opls_146-224    H    0.88878996    0.37597000    0.09580000    0.11110000
opls_146-225    H    0.94739003    0.42910015    0.25282927    0.11120000
opls_144-226    H    0.87103989    0.27038995    0.51730976    0.04990000
opls_146-227    H    0.79203996    0.26847992    0.04031951    0.11110000
opls_146-228    H    0.73133000    0.21159003    0.01189024    0.10650000
opls_146-229    H    0.77051008    0.15636012    0.62770000    0.11150000
opls_146-230    H    0.83197004    0.21261998    0.63867073    0.10680000
opls_144-231    H    0.68996017    0.14928014    0.16483902    0.05810000
opls_146-232    H    0.63823994    0.10640990    0.20662927    0.11030000
opls_146-233    H    0.57922014    0.05073012    0.28810976    0.11000000
opls_146-234    H    0.62763006    0.01407998    0.00729024    0.11490000
opls_146-235    H    0.68727993    0.06873008    0.90841951    0.11070000
opls_146-236    H    0.49679993    0.44024997    0.79200000    0.11230000
opls_146-237    H    0.55575012    0.49545012    0.78861951    0.11170000
opls_146-238    H    0.63798010    0.60250016    0.93580000    0.11810000
opls_146-239    H    0.69029001    0.59776015    0.77503902    0.11110000
opls_146-240    H    0.62403012    0.51282004    0.09580000    0.11110000
opls_146-241    H    0.57090008    0.51828999    0.25282927    0.11120000
opls_144-242    H    0.72961020    0.60065018    0.51730976    0.04990000
opls_146-243    H    0.73152002    0.52356013    0.04031951    0.11100000
opls_146-244    H    0.78840998    0.51974006    0.01189024    0.10760000
opls_146-245    H    0.84364005    0.61415008    0.62770000    0.11150000
opls_146-246    H    0.78737999    0.61935005    0.63867073    0.10680000
opls_144-247    H    0.85071990    0.54068000    0.16483902    0.05810000
opls_146-248    H    0.89358995    0.53183002    0.20662927    0.11030000
opls_146-249    H    0.94927012    0.52849012    0.28810976    0.10980000
opls_146-250    H    0.98591995    0.61355007    0.00729024    0.11490000
opls_146-251    H    0.93127001    0.61854995    0.90841951    0.11070000
