#======================================================================
# Crystal Data Generated By AuToFF
#----------------------------------------------------------------------

data_AuToFF_phase_1

_cell_length_a                         45.1442
_cell_length_b                         44.6094
_cell_length_c                         3.6209
_cell_angle_alpha                      89.97
_cell_angle_beta                       89.99
_cell_angle_gamma                      120.01
_symmetry_space_group_name_H-M_alt     'P 1'
_symmetry_space_group_IT_number        1

loop_
_space_group_symop_operation_xyz
   'x, y, z'

loop_
   _atom_site_label
   _atom_site_type_symbol
   _atom_site_fract_x
   _atom_site_fract_y
   _atom_site_fract_z
   _atom_site_charge
opls_146-0    H    0.32132015    0.20732011    0.03704051    0.11170000
opls_146-1    H    0.63833011    0.36796014    0.16891104    0.11380000
opls_146-2    H    0.63217004    0.26879007    0.07397885    0.11980000
opls_146-3    H    0.89104003    0.68471995    0.47859924    0.11480000
opls_146-4    H    0.72654994    0.36195003    0.83435058    0.11100000
opls_146-5    H    0.77095993    0.13610998    0.16435969    0.11490000
opls_146-6    H    0.03466000    0.06397995    0.23834130    0.11170000
opls_146-7    H    0.86011994    0.63681995    0.88479107    0.11470000
opls_146-8    H    0.93886009    0.97238011    0.00267889    0.12030000
opls_146-9    H    0.79134991    0.10438992    0.83625066    0.11310000
opls_146-10    H    0.36608996    0.22417007    0.46893038    0.11100000
opls_146-11    H    0.03331006    0.97112018    0.89573863    0.11780000
opls_146-12    H    0.65624994    0.24680003    0.68980916    0.11360000
opls_146-13    H    0.68489998    0.21215003    0.68088044    0.11260000
opls_146-14    H    0.77593003    0.29804008    0.13926924    0.11580000
opls_146-15    H    0.74753008    0.33227004    0.16815985    0.11110000
opls_144-16    H    0.47223992    0.19579004    0.25432903    0.10580000
opls_146-17    H    0.74685001    0.17435997    0.09270071    0.11260000
opls_146-18    H    0.86909011    0.21847016    0.78112900    0.11350000
opls_146-19    H    0.84512007    0.25686006    0.72473971    0.11470000
opls_146-20    H    0.81612988    0.06673012    0.90394929    0.11310000
opls_146-21    H    0.91135987    0.15399997    0.27158994    0.11000000
opls_146-22    H    0.88636994    0.19157005    0.21934050    0.11400000
opls_144-23    H    0.86407994    0.05718990    0.07070065    0.10610000
opls_146-24    H    0.88919990    0.03139997    0.39896987    0.11450000
opls_146-25    H    0.92002002    0.99922006    0.39022066    0.11490000
opls_146-26    H    0.00824006    0.08865990    0.91800105    0.11160000
opls_146-27    H    0.97742002    0.12093994    0.94904029    0.11560000
opls_146-28    H    0.75198993    0.41376010    0.17231075    0.11470000
opls_146-29    H    0.78456007    0.47701996    0.09180038    0.11470000
opls_146-30    H    0.69397996    0.47454997    0.66490928    0.12000000
opls_146-31    H    0.66205009    0.41205018    0.72776934    0.11160000
opls_144-32    H    0.79829986    0.26952994    0.82021873    0.10610000
opls_146-33    H    0.82118989    0.57401001    0.89666934    0.11470000
opls_146-34    H    0.77918002    0.65089014    0.42928001    0.11500000
opls_146-35    H    0.74016001    0.58813009    0.45081886    0.11270000
opls_146-36    H    0.92992994    0.74755012    0.49629926    0.11390000
opls_146-37    H    0.84630010    0.76233011    0.83499959    0.11290000
opls_146-38    H    0.80752003    0.69947996    0.83087906    0.11230000
opls_144-39    H    0.94217000    0.80679010    0.65082990    0.10520000
opls_146-40    H    0.96824994    0.85509020    0.01897871    0.11780000
opls_146-41    H    0.00134009    0.91729020    0.11955867    0.11160000
opls_146-42    H    0.91996992    0.92833013    0.61641857    0.11780000
opls_146-43    H    0.88622993    0.86531999    0.54393935    0.11310000
opls_146-44    H    0.58543010    0.33919013    0.93926924    0.11750000
opls_146-45    H    0.52345012    0.30947006    0.03200862    0.11470000
opls_146-46    H    0.52592004    0.22252016    0.51433898    0.11630000
opls_146-47    H    0.58805001    0.25252011    0.45089066    0.11320000
opls_144-48    H    0.72832008    0.52901004    0.57395123    0.11040000
opls_146-49    H    0.42812003    0.24727005    0.48094949    0.11160000
opls_146-50    H    0.35105992    0.12507996    0.10404872    0.11180000
opls_146-51    H    0.41306002    0.14802993    0.13100058    0.11390000
opls_146-52    H    0.25979007    0.18519014    0.97714933    0.11390000
opls_146-53    H    0.23911990    0.08555996    0.38603938    0.11350000
opls_146-54    H    0.30082010    0.10789008    0.45801872    0.11350000
opls_144-55    H    0.20022013    0.13874012    0.02594106    0.09970000
opls_146-56    H    0.14625998    0.11630003    0.92742136    0.11850000
opls_146-57    H    0.08436997    0.08624994    0.87374962    0.11500000
opls_146-58    H    0.07837998    0.99372995    0.33127123    0.11260000
opls_146-59    H    0.14123986    0.02410994    0.37477975    0.11260000
opls_700-60    C    0.68456999    0.36931003    0.99449861    0.06860000
opls_145-61    C    0.64984989    0.35246999    0.09771880    -0.17280000
opls_700-62    C    0.59232988    0.29842998    0.18573007    0.06120000
opls_145-63    C    0.68225005    0.25829008    0.79263995    -0.12630000
opls_145-64    C    0.69855004    0.23852000    0.78320031    -0.17870000
opls_145-65    C    0.73255990    0.25269004    0.89962993    0.18850000
opls_145-66    C    0.75014014    0.28696009    0.03193129    -0.18190000
opls_145-67    C    0.73378001    0.30657990    0.04791074    -0.12980000
opls_142-68    C    0.46263001    0.21353998    0.29302107    0.06940000
opls_700-69    C    0.79417994    0.21842012    0.90249109    0.05480000
opls_145-70    C    0.77349004    0.18401012    0.02182054    -0.13210000
opls_145-71    C    0.78728004    0.16214005    0.06070866    -0.13120000
opls_700-72    C    0.82198990    0.17416005    0.97809937    0.06750000
opls_145-73    C    0.84250006    0.20858010    0.85525974    -0.12930000
opls_145-74    C    0.82877007    0.23049009    0.81984037    -0.13290000
opls_700-75    C    0.83685996    0.15106992    0.02172112    0.06700000
opls_145-76    C    0.81733991    0.11546012    0.93854843    -0.12980000
opls_145-77    C    0.83153987    0.09393994    0.97468033    -0.13260000
opls_700-78    C    0.86563998    0.10760007    0.09033942    0.05850000
opls_145-79    C    0.88512994    0.14304012    0.17658869    -0.13190000
opls_145-80    C    0.87087989    0.16451996    0.14396973    -0.12930000
opls_142-81    C    0.88066007    0.08480995    0.11264879    0.07510000
opls_145-82    C    0.93097984    0.07834992    0.16455025    0.19110000
opls_145-83    C    0.91502997    0.04386990    0.29022066    -0.18620000
opls_145-84    C    0.93274990    0.02548996    0.28453976    -0.12370000
opls_700-85    C    0.96660984    0.04105990    0.14873926    0.06770000
opls_145-86    C    0.98261004    0.07594004    0.03298075    -0.13120000
opls_145-87    C    0.96503992    0.09440004    0.04617084    -0.16950000
opls_700-88    C    0.98470995    0.02083988    0.10964953    0.06720000
opls_145-89    C    0.96644995    0.98533009    0.02077936    -0.16880000
opls_700-90    C    0.63014989    0.31606999    0.11571985    0.06210000
opls_145-91    C    0.64662989    0.29669990    0.05398934    -0.17080000
opls_700-92    C    0.69955004    0.29253009    0.92934077    0.06760000
opls_145-93    C    0.73925011    0.42668000    0.05395896    -0.13100000
opls_145-94    C    0.75783007    0.46274005    0.01133972    -0.17800000
opls_145-95    C    0.74219995    0.48069005    0.87038029    0.18420000
opls_145-96    C    0.70722989    0.46190996    0.77384076    -0.18440000
opls_145-97    C    0.68863994    0.42583995    0.81407937    -0.13120000
opls_142-98    C    0.78049979    0.24231994    0.87257036    0.07500000
opls_700-99    C    0.77773997    0.57639017    0.67537905    0.05690000
opls_145-100    C    0.81192000    0.59064998    0.79281118    -0.13210000
opls_145-101    C    0.83420006    0.62652010    0.78323069    -0.12930000
opls_700-102    C    0.82273990    0.64888007    0.65630920    0.06750000
opls_145-103    C    0.78856007    0.63446017    0.53647988    -0.12940000
opls_145-104    C    0.76630992    0.59859005    0.54609904    -0.13270000
opls_700-105    C    0.84617992    0.68708007    0.65395896    0.06900000
opls_145-106    C    0.88101991    0.70133005    0.56097931    -0.12900000
opls_145-107    C    0.90320999    0.73722012    0.56827860    -0.13270000
opls_700-108    C    0.89098008    0.75961009    0.66516060    0.06570000
opls_145-109    C    0.85615006    0.74552006    0.75430970    -0.13180000
opls_145-110    C    0.83399987    0.70963007    0.74991853    -0.12940000
opls_142-111    C    0.91498013    0.79735021    0.68217018    0.07040000
opls_145-112    C    0.92493009    0.85577014    0.76735894    0.19110000
opls_145-113    C    0.95789001    0.87100020    0.92320970    -0.18220000
opls_145-114    C    0.97693011    0.90686015    0.97911017    -0.13230000
opls_700-115    C    0.96374010    0.92847012    0.87490955    0.06140000
opls_145-116    C    0.93084015    0.91289021    0.71264879    -0.13270000
opls_145-117    C    0.91155996    0.87692021    0.66575989    -0.17370000
opls_700-118    C    0.98348996    0.96659017    0.95345080    0.06380000
opls_145-119    C    0.01954995    0.98437018    0.96986937    -0.17290000
opls_700-120    C    0.68176992    0.31306006    0.96695849    0.06730000
opls_145-121    C    0.70014002    0.34930017    0.92620895    -0.17250000
opls_700-122    C    0.70440989    0.40773004    0.95398934    0.06760000
opls_145-123    C    0.57326990    0.31423003    0.07600044    -0.12980000
opls_145-124    C    0.53772999    0.29718990    0.12327046    -0.16830000
opls_145-125    C    0.52013992    0.26367998    0.26832003    0.18930000
opls_145-126    C    0.53878012    0.24781012    0.38513905    -0.18640000
opls_145-127    C    0.57450994    0.26511996    0.34704079    -0.13220000
opls_142-128    C    0.75365004    0.53863012    0.68832058    0.07790000
opls_700-129    C    0.42519002    0.19941995    0.30447955    0.06570000
opls_145-130    C    0.41139003    0.22054003    0.39956917    -0.13120000
opls_145-131    C    0.37596001    0.20735006    0.39030075    -0.12940000
opls_700-132    C    0.35357995    0.17281990    0.28278881    0.06730000
opls_145-133    C    0.36748992    0.15155003    0.19479964    -0.12760000
opls_145-134    C    0.40293001    0.16469007    0.20776050    -0.13150000
opls_700-135    C    0.31605001    0.15937003    0.25208097    0.06760000
opls_145-136    C    0.30371988    0.18087989    0.12082079    -0.12940000
opls_145-137    C    0.26852991    0.16818991    0.08381894    -0.13270000
opls_700-138    C    0.24486998    0.13370004    0.17547019    0.06010000
opls_145-139    C    0.25698990    0.11214990    0.30914966    -0.12940000
opls_145-140    C    0.29222999    0.12487991    0.34778922    -0.12970000
opls_142-141    C    0.20785002    0.12072997    0.12559861    0.06820000
opls_145-142    C    0.14865988    0.07233993    0.15854069    0.17920000
opls_145-143    C    0.13208015    0.08973014    0.01963048    -0.18620000
opls_145-144    C    0.09631993    0.07249011    0.99044989    -0.12900000
opls_700-145    C    0.07630989    0.03762998    0.10046950    0.06750000
opls_145-146    C    0.09298994    0.02034008    0.23730012    -0.12890000
opls_145-147    C    0.12877005    0.03760014    0.26487061    -0.17620000
opls_700-148    C    0.03824988    0.01947998    0.07237980    0.06860000
opls_145-149    C    0.02052007    0.03728006    0.14657129    -0.17240000
opls_750-150    N    0.48348007    0.24686005    0.29560883    -0.34430000
opls_750-151    N    0.91354991    0.09789993    0.15313044    -0.34020000
opls_750-152    N    0.74780981    0.23104994    0.90256014    -0.33570000
opls_750-153    N    0.90372004    0.81890015    0.72760087    -0.34450000
opls_750-154    N    0.76281993    0.51775001    0.83361043    -0.33670000
opls_750-155    N    0.18529985    0.08857990    0.19708084    -0.33670000
