#======================================================================
# Crystal Data Generated By AuToFF
#----------------------------------------------------------------------

data_AuToFF_phase_1

_cell_length_a                         28.6000
_cell_length_b                         28.9300
_cell_length_c                         3.7900
_cell_angle_alpha                      90.00
_cell_angle_beta                       90.00
_cell_angle_gamma                      120.00
_symmetry_space_group_name_H-M_alt     'P 1'
_symmetry_space_group_IT_number        1

loop_
_space_group_symop_operation_xyz
   'x, y, z'

loop_
   _atom_site_label
   _atom_site_type_symbol
   _atom_site_fract_x
   _atom_site_fract_y
   _atom_site_fract_z
   _atom_site_charge
opls_916-0    C    0.72071001    0.35853000    0.89905013    0.21700000
opls_145-1    C    0.75062004    0.33329023    0.64977045    -0.10590000
opls_145-2    C    0.80813015    0.36013013    0.62939050    -0.11040000
opls_145-3    C    0.83684018    0.41296019    0.85445910    0.22870000
opls_145-4    C    0.80732007    0.43873999    0.10096042    -0.10630000
opls_145-5    C    0.74989003    0.41166020    0.12331926    -0.11200000
opls_142-6    C    0.92514009    0.48850029    0.02729024    0.04250000
opls_700-7    C    0.98509015    0.51369017    0.01026121    0.10180000
opls_145-8    C    0.01487001    0.56834028    0.20802111    -0.08620000
opls_145-9    C    0.07197998    0.59315019    0.20222955    -0.08040000
opls_700-10    C    0.10017010    0.56362010    0.99882058    0.10180000
opls_145-11    C    0.06995008    0.50871015    0.80005013    -0.08610000
opls_145-12    C    0.01280029    0.48388029    0.80555937    -0.08020000
opls_700-13    C    0.16063989    0.58987009    0.99745119    0.10170000
opls_523-14    C    0.18925009    0.56116022    0.78972032    -0.08020000
opls_522-15    C    0.24611982    0.58605993    0.79350923    -0.11210000
opls_521-16    C    0.27600011    0.64011015    0.00488127    0.11550000
opls_522-17    C    0.24739993    0.66952009    0.20616887    0.00540000
opls_523-18    C    0.19036013    0.64412027    0.20416887    -0.00230000
opls_916-19    C    0.63336003    0.36199011    0.95510026    0.21300000
opls_145-20    C    0.66285029    0.41386024    0.85521900    -0.15400000
opls_145-21    C    0.63735015    0.44502000    0.88254881    -0.11290000
opls_145-22    C    0.58140986    0.42490992    0.00802111    0.20190000
opls_145-23    C    0.55129020    0.37339023    0.11049868    -0.13440000
opls_145-24    C    0.57722025    0.34270026    0.08691029    -0.11340000
opls_142-25    C    0.50334005    0.43872003    0.08658047    0.03740000
opls_700-26    C    0.47950025    0.47302020    0.08973087    0.08530000
opls_145-27    C    0.42220012    0.45002996    0.12800000    -0.08710000
opls_145-28    C    0.39863992    0.48163994    0.12313984    -0.08370000
opls_700-29    C    0.43209025    0.53677021    0.08077045    0.07230000
opls_145-30    C    0.48963008    0.55967025    0.04515040    -0.08720000
opls_145-31    C    0.51318996    0.52802993    0.04874934    -0.11480000
opls_700-32    C    0.40721013    0.56997994    0.06812929    0.07390000
opls_523-33    C    0.44050002    0.62589012    0.04626121    -0.15010000
opls_522-34    C    0.41703007    0.65692016    0.02953034    -0.11960000
opls_521-35    C    0.35978006    0.63324021    0.03073087    0.18750000
opls_522-36    C    0.32682018    0.57728013    0.05701055    -0.15410000
opls_523-37    C    0.35002000    0.54602019    0.07426913    -0.12070000
opls_916-38    C    0.63022995    0.27117986    0.93140106    0.19140000
opls_145-39    C    0.57414000    0.23852015    0.87232982    -0.10060000
opls_145-40    C    0.54506998    0.18206993    0.87767018    -0.14320000
opls_145-41    C    0.57171007    0.15651005    0.93517942    0.22430000
opls_145-42    C    0.62774005    0.18822022    0.99120053    -0.10380000
opls_145-43    C    0.65638002    0.24481013    0.99091029    -0.14830000
opls_142-44    C    0.56327001    0.06989991    0.94381003    0.03540000
opls_700-45    C    0.52974020    0.01137019    0.96646966    0.07690000
opls_145-46    C    0.55532024    0.97876037    0.88865963    -0.08950000
opls_145-47    C    0.52405020    0.92272006    0.90569129    -0.08960000
opls_700-48    C    0.46686012    0.89874037    0.00515040    0.06840000
opls_145-49    C    0.44151026    0.93187026    0.08617942    -0.08960000
opls_145-50    C    0.47269000    0.98777007    0.06588918    -0.09840000
opls_700-51    C    0.43357997    0.83921999    0.01654881    0.10290000
opls_523-52    C    0.38100030    0.81874032    0.21441953    0.00300000
opls_522-53    C    0.34845001    0.76223023    0.21755937    0.00690000
opls_521-54    C    0.36845003    0.72475015    0.02083905    0.11600000
opls_522-55    C    0.42109007    0.74562018    0.82141953    -0.11240000
opls_523-56    C    0.45340014    0.80205004    0.82026121    -0.08020000
opls_750-57    N    0.89563984    0.43896989    0.83516095    -0.23140000
opls_750-58    N    0.55604983    0.45684999    0.01830079    -0.21700000
opls_750-59    N    0.54066010    0.09887998    0.09888127    -0.21270000
opls_239-60    N    0.66089013    0.33023005    0.92721900    -0.13950000
opls_239-61    N    0.33486010    0.66500027    0.01200000    -0.13520000
opls_202-62    S    0.28103002    0.73986025    0.47792084    0.11810000
opls_146-63    H    0.72514004    0.29474006    0.49648021    0.04630000
opls_146-64    H    0.82875984    0.34282000    0.46139050    0.04630000
opls_146-65    H    0.83300010    0.47768011    0.24981003    0.04630000
opls_146-66    H    0.72922031    0.42881028    0.29235884    0.04630000
opls_144-67    H    0.90239994    0.50539013    0.17654881    0.02740000
opls_146-68    H    0.99061002    0.58493996    0.34111082    0.04630000
opls_146-69    H    0.09762027    0.63324021    0.33863061    0.04630000
opls_146-70    H    0.09399994    0.49193007    0.66630079    0.04630000
opls_146-71    H    0.98717999    0.44384015    0.66848021    0.04630000
opls_526-72    H    0.16340016    0.52181019    0.64550923    0.04630000
opls_525-73    H    0.26713001    0.56687027    0.64981003    0.04630000
opls_526-74    H    0.16917005    0.66323010    0.34659894    0.04630000
opls_146-75    H    0.70590992    0.43037011    0.75537995    0.04630000
opls_146-76    H    0.66018993    0.48897007    0.80486016    0.04630000
opls_146-77    H    0.50817996    0.35756010    0.20730079    0.04630000
opls_146-78    H    0.55505017    0.29910023    0.17284960    0.04640000
opls_144-79    H    0.47513994    0.39460991    0.14556992    0.02730000
opls_146-80    H    0.39544995    0.40507007    0.16302902    0.04630000
opls_146-81    H    0.35303997    0.46269015    0.15321108    0.04630000
opls_146-82    H    0.51659014    0.60466007    0.01326913    0.04630000
opls_146-83    H    0.55880006    0.54699009    0.01882058    0.04630000
opls_526-84    H    0.48629002    0.64452020    0.04277045    0.04630000
opls_525-85    H    0.44329004    0.70220016    0.01443008    0.04640000
opls_525-86    H    0.28101000    0.55837026    0.06373879    0.04630000
opls_526-87    H    0.32364995    0.50079009    0.09358047    0.04630000
opls_146-88    H    0.54833011    0.25748989    0.81421900    0.04630000
opls_146-89    H    0.49956012    0.15963010    0.83279947    0.04630000
opls_146-90    H    0.65309015    0.16851008    0.04093931    0.04630000
opls_146-91    H    0.70174981    0.26766986    0.04159894    0.04630000
opls_144-92    H    0.60469985    0.09207990    0.81341953    0.02730000
opls_146-93    H    0.59993010    0.99911033    0.81583113    0.04640000
opls_146-94    H    0.54319001    0.89729030    0.84329024    0.04630000
opls_146-95    H    0.39710019    0.91177016    0.16396042    0.04630000
opls_146-96    H    0.45352998    0.01326010    0.12573087    0.04630000
opls_526-97    H    0.37065015    0.84805008    0.34416887    0.04630000
opls_525-98    H    0.43153990    0.71651996    0.68944063    0.04630000
opls_526-99    H    0.49409991    0.82214016    0.67984960    0.04630000
