#======================================================================
# Crystal Data Generated By AuToFF
#----------------------------------------------------------------------

data_AuToFF_phase_1

_cell_length_a                         20.4043
_cell_length_b                         15.7014
_cell_length_c                         5.1963
_cell_angle_alpha                      90.00
_cell_angle_beta                       86.50
_cell_angle_gamma                      90.00
_symmetry_space_group_name_H-M_alt     'P 1'
_symmetry_space_group_IT_number        1

loop_
_space_group_symop_operation_xyz
   'x, y, z'

loop_
   _atom_site_label
   _atom_site_type_symbol
   _atom_site_fract_x
   _atom_site_fract_y
   _atom_site_fract_z
   _atom_site_charge
opls_145-0    C    0.33964967    0.85544983    0.99838045    -0.12520000
opls_145-1    C    0.39419979    0.90576000    0.92736874    -0.08700000
opls_145-2    C    0.44924994    0.85362006    0.29457970    -0.08700000
opls_145-3    C    0.39483996    0.80286981    0.36534075    -0.10380000
opls_145-4    C    0.33955019    0.80390029    0.21926075    0.23760000
opls_700-5    C    0.44886996    0.09355026    0.07768080    0.08750000
opls_700-6    C    0.06685976    0.59364006    0.41355915    0.09180000
opls_145-7    C    0.06499989    0.64616977    0.19649058    -0.08700000
opls_145-8    C    0.11884980    0.69710981    0.12026931    -0.08560000
opls_145-9    C    0.12259973    0.59459029    0.55816998    -0.06960000
opls_700-10    C    0.17499982    0.30355000    0.26117059    0.07340000
opls_145-11    C    0.17664993    0.35477028    0.48158045    -0.06960000
opls_142-12    C    0.23089003    0.24994969    0.17507968    0.02200000
opls_141-13    C    0.00808005    0.54341014    0.49809991    -0.02040000
opls_145-14    C    0.83964993    0.35544983    0.49837948    -0.06960000
opls_145-15    C    0.89420002    0.40576000    0.42736971    -0.08700000
opls_145-16    C    0.94924971    0.35362006    0.79457873    -0.08700000
opls_145-17    C    0.89483973    0.30286981    0.86533979    -0.08710000
opls_700-18    C    0.83954996    0.30390029    0.71925979    0.07830000
opls_142-19    C    0.78419997    0.74791993    0.79846952    0.08950000
opls_700-20    C    0.94886973    0.59355026    0.57767983    0.08750000
opls_700-21    C    0.56685999    0.09364006    0.91356011    0.09180000
opls_145-22    C    0.56499966    0.14616977    0.69648961    -0.08700000
opls_145-23    C    0.61885003    0.19710981    0.62027027    -0.10370000
opls_145-24    C    0.62259999    0.09459029    0.05816902    -0.06960000
opls_145-25    C    0.67500008    0.80355000    0.76116963    0.22250000
opls_145-26    C    0.67664970    0.85477028    0.98157949    -0.12520000
opls_141-27    C    0.50807982    0.04341014    0.99809895    -0.02040000
opls_145-28    C    0.33964967    0.14455017    0.99838045    -0.12520000
opls_145-29    C    0.39419979    0.09424000    0.92736874    -0.08700000
opls_145-30    C    0.44924994    0.14637994    0.29457970    -0.08700000
opls_145-31    C    0.39483996    0.19713019    0.36534075    -0.10380000
opls_145-32    C    0.33955019    0.19609971    0.21926075    0.23770000
opls_700-33    C    0.44886996    0.90644974    0.07768080    0.08750000
opls_700-34    C    0.06685976    0.40635994    0.41355915    0.09190000
opls_145-35    C    0.06499989    0.35383023    0.19649058    -0.08700000
opls_145-36    C    0.11884980    0.30289019    0.12026931    -0.08550000
opls_145-37    C    0.12259973    0.40540971    0.55816998    -0.06960000
opls_700-38    C    0.17499982    0.69645000    0.26117059    0.07340000
opls_145-39    C    0.17664993    0.64522972    0.48158045    -0.06960000
opls_142-40    C    0.23089003    0.75005031    0.17507968    0.02200000
opls_141-41    C    0.00808005    0.45658986    0.49809991    -0.02040000
opls_145-42    C    0.83964993    0.64455017    0.49837948    -0.06960000
opls_145-43    C    0.89420002    0.59424000    0.42736971    -0.08700000
opls_145-44    C    0.94924971    0.64637994    0.79457873    -0.08700000
opls_145-45    C    0.89483973    0.69713019    0.86533979    -0.08710000
opls_700-46    C    0.83954996    0.69609971    0.71925979    0.07840000
opls_142-47    C    0.78419997    0.25208007    0.79846952    0.08950000
opls_700-48    C    0.94886973    0.40644974    0.57767983    0.08770000
opls_700-49    C    0.56685999    0.90635994    0.91356011    0.09180000
opls_145-50    C    0.56499966    0.85383023    0.69648961    -0.08700000
opls_145-51    C    0.61885003    0.80289019    0.62027027    -0.10370000
opls_145-52    C    0.62259999    0.90540971    0.05816902    -0.06960000
opls_145-53    C    0.67500008    0.19645000    0.76116963    0.22260000
opls_145-54    C    0.67664970    0.14522972    0.98157949    -0.12520000
opls_141-55    C    0.50807982    0.95658986    0.99809895    -0.02040000
opls_750-56    N    0.28419971    0.24791993    0.29847048    -0.26420000
opls_750-57    N    0.73088977    0.74994969    0.67508064    -0.24160000
opls_750-58    N    0.28419971    0.75208007    0.29847048    -0.26420000
opls_750-59    N    0.73088977    0.25005031    0.67508064    -0.24160000
opls_146-60    H    0.01933020    0.64756009    0.08066926    0.05210000
opls_146-61    H    0.11706998    0.73940986    0.94253086    0.05210000
opls_146-62    H    0.12403990    0.55390029    0.73944060    0.05220000
opls_146-63    H    0.22211983    0.35516005    0.59862029    0.05210000
opls_146-64    H    0.29507991    0.85631027    0.87637011    0.05210000
opls_146-65    H    0.39443007    0.94663024    0.74599016    0.05210000
opls_146-66    H    0.49432977    0.85216987    0.41375966    0.05210000
opls_146-67    H    0.39540004    0.76033984    0.54300979    0.05210000
opls_146-68    H    0.51932994    0.14756009    0.58067023    0.05210000
opls_146-69    H    0.61706975    0.23940986    0.44252990    0.05210000
opls_146-70    H    0.62404016    0.05390029    0.23943963    0.05210000
opls_146-71    H    0.72211960    0.85516005    0.09861933    0.05210000
opls_146-72    H    0.79508017    0.35631027    0.37636915    0.05210000
opls_146-73    H    0.89442984    0.44663024    0.24598919    0.05210000
opls_146-74    H    0.99433003    0.35216987    0.91375870    0.05210000
opls_146-75    H    0.89539981    0.26033984    0.04300882    0.05210000
opls_144-76    H    0.22669018    0.20938006    0.99487912    0.03080000
opls_144-77    H    0.78843970    0.78856981    0.97846956    0.03080000
opls_146-78    H    0.01933020    0.35243991    0.08066926    0.05220000
opls_146-79    H    0.11706998    0.26059014    0.94253086    0.05210000
opls_146-80    H    0.12403990    0.44609971    0.73944060    0.05210000
opls_146-81    H    0.22211983    0.64483995    0.59862029    0.05210000
opls_146-82    H    0.29507991    0.14368973    0.87637011    0.05210000
opls_146-83    H    0.39443007    0.05336976    0.74599016    0.05210000
opls_146-84    H    0.49432977    0.14783013    0.41375966    0.05210000
opls_146-85    H    0.39540004    0.23966016    0.54300979    0.05210000
opls_146-86    H    0.51932994    0.85243991    0.58067023    0.05210000
opls_146-87    H    0.61706975    0.76059014    0.44252990    0.05210000
opls_146-88    H    0.62404016    0.94609971    0.23943963    0.05210000
opls_146-89    H    0.72211960    0.14483995    0.09861933    0.05220000
opls_146-90    H    0.79508017    0.64368973    0.37636915    0.05210000
opls_146-91    H    0.89442984    0.55336976    0.24598919    0.05210000
opls_146-92    H    0.99433003    0.64783013    0.91375870    0.05210000
opls_146-93    H    0.89539981    0.73966016    0.04300882    0.05210000
opls_144-94    H    0.22669018    0.79061994    0.99487912    0.03080000
opls_144-95    H    0.78843970    0.21143019    0.97846956    0.03080000
