#======================================================================
# Crystal Data Generated By AuToFF
#----------------------------------------------------------------------

data_AuToFF_phase_1

_cell_length_a                         37.5186
_cell_length_b                         37.5186
_cell_length_c                         3.8329
_cell_angle_alpha                      90.00
_cell_angle_beta                       90.00
_cell_angle_gamma                      120.00
_symmetry_space_group_name_H-M_alt     'P 1'
_symmetry_space_group_IT_number        1

loop_
_space_group_symop_operation_xyz
   'x, y, z'

loop_
   _atom_site_label
   _atom_site_type_symbol
   _atom_site_fract_x
   _atom_site_fract_y
   _atom_site_fract_z
   _atom_site_charge
opls_700-0    C    0.28982006    0.64114987    0.69189908    0.07670000
opls_145-1    C    0.31562010    0.62388011    0.69248872    -0.12970000
opls_700-2    C    0.24402000    0.61445996    0.68705941    0.07100000
opls_145-3    C    0.37173000    0.59071016    0.53001122    -0.11480000
opls_145-4    C    0.39592011    0.57220995    0.52857888    -0.15930000
opls_145-5    C    0.43545993    0.59208003    0.68291111    0.21430000
opls_145-6    C    0.45019008    0.63158015    0.82867020    -0.16190000
opls_145-7    C    0.42544989    0.64953992    0.83471001    -0.11460000
opls_142-8    C    0.44680012    0.53542004    0.69542122    0.03250000
opls_700-9    C    0.47380010    0.51745996    0.68101959    -0.02800000
opls_166-10    C    0.45717009    0.47412014    0.66717890    0.23350000
opls_145-11    C    0.48291007    0.45703997    0.67769052    -0.19430000
opls_182-12    C    0.60409994    0.59072001    0.51396071    -0.00910000
opls_700-13    C    0.35212999    0.39558003    0.38722116    0.02800000
opls_700-14    C    0.67555991    0.64597997    0.36103994    -0.04680000
opls_423-15    C    0.66455992    0.67581988    0.48158053    0.26120000
opls_423-16    C    0.71552005    0.66394005    0.19691096    0.26980000
opls_142-17    C    0.65440986    0.57098996    0.26252968    -0.08750000
opls_700-18    C    0.68846998    0.56665013    0.27883065    -0.05050000
opls_423-19    C    0.68683983    0.53044990    0.12784054    0.26130000
opls_423-20    C    0.72706013    0.59441014    0.44736883    0.26650000
opls_700-21    C    0.35884996    0.64867017    0.69189908    0.07680000
opls_145-22    C    0.37612010    0.69174007    0.69248872    -0.12970000
opls_700-23    C    0.38554008    0.62955996    0.68705941    0.07100000
opls_145-24    C    0.40929004    0.78102004    0.53001122    -0.11480000
opls_145-25    C    0.42779011    0.82371016    0.52857888    -0.15930000
opls_145-26    C    0.40791998    0.84337989    0.68291111    0.21410000
opls_145-27    C    0.36842002    0.81861015    0.82867020    -0.16190000
opls_145-28    C    0.35045993    0.77590987    0.83471001    -0.11280000
opls_142-29    C    0.46457993    0.91137989    0.69542122    0.03250000
opls_700-30    C    0.48254015    0.95634010    0.68101959    -0.02790000
opls_166-31    C    0.52587997    0.98305001    0.66717890    0.23350000
opls_145-32    C    0.54296011    0.02587001    0.67769052    -0.19430000
opls_182-33    C    0.40927986    0.01337988    0.51396071    -0.00910000
opls_700-34    C    0.60441990    0.95655000    0.38722116    0.02800000
opls_700-35    C    0.35401995    0.02958015    0.36103994    -0.04680000
opls_423-36    C    0.32418002    0.98874002    0.48158053    0.26120000
opls_423-37    C    0.33606010    0.05157999    0.19691096    0.26990000
opls_142-38    C    0.42900994    0.08342007    0.26252968    -0.08750000
opls_700-39    C    0.43335003    0.12181992    0.27883065    -0.05050000
opls_423-40    C    0.46954990    0.15638990    0.12784054    0.26120000
opls_423-41    C    0.40559003    0.13264995    0.44736883    0.26650000
opls_700-42    C    0.35132998    0.71017996    0.69189908    0.07670000
opls_145-43    C    0.30825996    0.68438012    0.69248872    -0.12970000
opls_700-44    C    0.37043992    0.75598008    0.68705941    0.07100000
opls_145-45    C    0.21898012    0.62827011    0.53001122    -0.11480000
opls_145-46    C    0.17629005    0.60407989    0.52857888    -0.15930000
opls_145-47    C    0.15662009    0.56454008    0.68291111    0.21410000
opls_145-48    C    0.18139006    0.54981002    0.82867020    -0.16190000
opls_145-49    C    0.22409003    0.57454991    0.83471001    -0.11280000
opls_142-50    C    0.08861994    0.55320007    0.69542122    0.03250000
opls_700-51    C    0.04366001    0.52619994    0.68101959    -0.02800000
opls_166-52    C    0.01695009    0.54283016    0.66717890    0.23350000
opls_145-53    C    0.97413008    0.51709002    0.67769052    -0.19430000
opls_182-54    C    0.98661994    0.39590011    0.51396071    -0.00910000
opls_700-55    C    0.04345011    0.64786997    0.38722116    0.02800000
opls_700-56    C    0.97041987    0.32443988    0.36103994    -0.04680000
opls_423-57    C    0.01126006    0.33544010    0.48158053    0.26120000
opls_423-58    C    0.94841985    0.28447996    0.19691096    0.26980000
opls_142-59    C    0.91657993    0.34558997    0.26252968    -0.08750000
opls_700-60    C    0.87817999    0.31152996    0.27883065    -0.05050000
opls_423-61    C    0.84360985    0.31315989    0.12784054    0.26120000
opls_423-62    C    0.86734984    0.27293991    0.44736883    0.26650000
opls_700-63    C    0.71017994    0.35885013    0.69189908    0.07670000
opls_145-64    C    0.68437990    0.37611989    0.69248872    -0.12970000
opls_700-65    C    0.75598000    0.38554004    0.68705941    0.07110000
opls_145-66    C    0.62827016    0.40929015    0.53001122    -0.11480000
opls_145-67    C    0.60407989    0.42779005    0.52857888    -0.15930000
opls_145-68    C    0.56454007    0.40791997    0.68291111    0.21410000
opls_145-69    C    0.54981008    0.36842016    0.82867020    -0.16190000
opls_145-70    C    0.57455011    0.35046008    0.83471001    -0.11280000
opls_142-71    C    0.55319988    0.46457996    0.69542122    0.03250000
opls_700-72    C    0.52619990    0.48254004    0.68101959    -0.02800000
opls_166-73    C    0.54282991    0.52587986    0.66717890    0.23350000
opls_145-74    C    0.51708993    0.54296003    0.67769052    -0.19430000
opls_182-75    C    0.39590006    0.40927999    0.51396071    -0.00910000
opls_700-76    C    0.64787001    0.60441997    0.38722116    0.02800000
opls_700-77    C    0.32444009    0.35402003    0.36103994    -0.04680000
opls_423-78    C    0.33544008    0.32418012    0.48158053    0.26120000
opls_423-79    C    0.28447995    0.33605995    0.19691096    0.26980000
opls_142-80    C    0.34559014    0.42901004    0.26252968    -0.08750000
opls_700-81    C    0.31153002    0.43334987    0.27883065    -0.05050000
opls_423-82    C    0.31316017    0.46955010    0.12784054    0.26120000
opls_423-83    C    0.27293987    0.40558986    0.44736883    0.26650000
opls_700-84    C    0.64115019    0.35133014    0.69189908    0.07670000
opls_145-85    C    0.62387990    0.30825993    0.69248872    -0.12970000
opls_700-86    C    0.61445992    0.37044004    0.68705941    0.07100000
opls_145-87    C    0.59070996    0.21897996    0.53001122    -0.11480000
opls_145-88    C    0.57221004    0.17629015    0.52857888    -0.15930000
opls_145-89    C    0.59208002    0.15662011    0.68291111    0.21410000
opls_145-90    C    0.63157998    0.18138985    0.82867020    -0.16190000
opls_145-91    C    0.64954007    0.22409013    0.83471001    -0.11280000
opls_142-92    C    0.53542007    0.08862011    0.69542122    0.03250000
opls_700-93    C    0.51745985    0.04365990    0.68101959    -0.02800000
opls_166-94    C    0.47412003    0.01694999    0.66717890    0.23350000
opls_145-95    C    0.45703989    0.97412999    0.67769052    -0.19420000
opls_182-96    C    0.59072014    0.98662012    0.51396071    -0.00910000
opls_700-97    C    0.39558010    0.04345000    0.38722116    0.02800000
opls_700-98    C    0.64598020    0.97042016    0.36103994    -0.04680000
opls_423-99    C    0.67581998    0.01125998    0.48158053    0.26120000
opls_423-100    C    0.66393990    0.94842001    0.19691096    0.26980000
opls_142-101    C    0.57099006    0.91657993    0.26252968    -0.08750000
opls_700-102    C    0.56664997    0.87818008    0.27883065    -0.05050000
opls_423-103    C    0.53045010    0.84361010    0.12784054    0.26130000
opls_423-104    C    0.59440997    0.86735005    0.44736883    0.26660000
opls_700-105    C    0.64867002    0.28982004    0.69189908    0.07670000
opls_145-106    C    0.69174004    0.31561988    0.69248872    -0.12970000
opls_700-107    C    0.62956008    0.24401992    0.68705941    0.07100000
opls_145-108    C    0.78101988    0.37172989    0.53001122    -0.11470000
opls_145-109    C    0.82370995    0.39592011    0.52857888    -0.15930000
opls_145-110    C    0.84337991    0.43545992    0.68291111    0.21410000
opls_145-111    C    0.81860994    0.45018998    0.82867020    -0.16190000
opls_145-112    C    0.77590997    0.42545009    0.83471001    -0.11270000
opls_142-113    C    0.91138006    0.44679993    0.69542122    0.03250000
opls_700-114    C    0.95633999    0.47380006    0.68101959    -0.02800000
opls_166-115    C    0.98305006    0.45717015    0.66717890    0.23360000
opls_145-116    C    0.02586992    0.48290998    0.67769052    -0.19430000
opls_182-117    C    0.01338006    0.60409989    0.51396071    -0.00910000
opls_700-118    C    0.95654989    0.35213003    0.38722116    0.02800000
opls_700-119    C    0.02958013    0.67556012    0.36103994    -0.04680000
opls_423-120    C    0.98873994    0.66455990    0.48158053    0.26120000
opls_423-121    C    0.05158015    0.71552004    0.19691096    0.26980000
opls_142-122    C    0.08342007    0.65441003    0.26252968    -0.08750000
opls_700-123    C    0.12182001    0.68847004    0.27883065    -0.05050000
opls_423-124    C    0.15639015    0.68684011    0.12784054    0.26120000
opls_423-125    C    0.13265016    0.72706009    0.44736883    0.26650000
opls_750-126    N    0.46150003    0.57494015    0.68139007    -0.26350000
opls_753-127    N    0.65555989    0.69928992    0.58127006    -0.29870000
opls_753-128    N    0.74682010    0.68005014    0.05460095    -0.29890000
opls_753-129    N    0.68597016    0.50225009    0.99854940    -0.29880000
opls_753-130    N    0.75787018    0.61439010    0.59025020    -0.29880000
opls_750-131    N    0.42505996    0.88655998    0.68139007    -0.26350000
opls_753-132    N    0.30070990    0.95626993    0.58127006    -0.29870000
opls_753-133    N    0.31994999    0.06676985    0.05460095    -0.29890000
opls_753-134    N    0.49774986    0.18371996    0.99854940    -0.29890000
opls_753-135    N    0.38560991    0.14347998    0.59025020    -0.29890000
opls_750-136    N    0.11344002    0.53849987    0.68139007    -0.26340000
opls_753-137    N    0.04373021    0.34444015    0.58127006    -0.29880000
opls_753-138    N    0.93322991    0.25318001    0.05460095    -0.29890000
opls_753-139    N    0.81627998    0.31402995    0.99854940    -0.29890000
opls_753-140    N    0.85651991    0.24212992    0.59025020    -0.29880000
opls_750-141    N    0.53850013    0.42506015    0.68139007    -0.26340000
opls_753-142    N    0.34444011    0.30071008    0.58127006    -0.29890000
opls_753-143    N    0.25317990    0.31994986    0.05460095    -0.29890000
opls_753-144    N    0.31402984    0.49774991    0.99854940    -0.29890000
opls_753-145    N    0.24212982    0.38560990    0.59025020    -0.29890000
opls_750-146    N    0.57494004    0.11344002    0.68139007    -0.26350000
opls_753-147    N    0.69929010    0.04373007    0.58127006    -0.29890000
opls_753-148    N    0.68005001    0.93323015    0.05460095    -0.29880000
opls_753-149    N    0.50225014    0.81628004    0.99854940    -0.29890000
opls_753-150    N    0.61439009    0.85652002    0.59025020    -0.29890000
opls_750-151    N    0.88655998    0.46150013    0.68139007    -0.26350000
opls_753-152    N    0.95626995    0.65556016    0.58127006    -0.29890000
opls_753-153    N    0.06677009    0.74681999    0.05460095    -0.29890000
opls_753-154    N    0.18372002    0.68597005    0.99854940    -0.29890000
opls_753-155    N    0.14348009    0.75787008    0.59025020    -0.29870000
opls_179-156    O    0.41448988    0.45027000    0.64719925    -0.18680000
opls_179-157    O    0.54973000    0.96421987    0.64719925    -0.18690000
opls_179-158    O    0.03578012    0.58551012    0.64719925    -0.18680000
opls_179-159    O    0.58551012    0.54973000    0.64719925    -0.18680000
opls_179-160    O    0.45027000    0.03578013    0.64719925    -0.18690000
opls_179-161    O    0.96421988    0.41448988    0.64719925    -0.18690000
opls_146-162    H    0.30182007    0.59051011    0.69238957    0.11930000
opls_146-163    H    0.34200004    0.57480997    0.39899032    0.11970000
opls_146-164    H    0.38464997    0.54286986    0.39528034    0.11950000
opls_146-165    H    0.48047995    0.64734000    0.95022046    0.11950000
opls_146-166    H    0.43729001    0.67926995    0.96293929    0.11880000
opls_144-167    H    0.41330019    0.51312013    0.72439928    0.05190000
opls_146-168    H    0.47058007    0.42391003    0.68371990    0.12270000
opls_185-169    H    0.58554014    0.59204002    0.29374103    0.06550000
opls_185-170    H    0.60461018    0.61207015    0.71709932    0.06710000
opls_144-171    H    0.62681006    0.54489004    0.15274074    0.12200000
opls_146-172    H    0.40948994    0.71131009    0.69238957    0.11930000
opls_146-173    H    0.42519005    0.76718989    0.39899032    0.11970000
opls_146-174    H    0.45712995    0.84178011    0.39528034    0.11950000
opls_146-175    H    0.35266018    0.83314016    0.95022046    0.11950000
opls_146-176    H    0.32073009    0.75801996    0.96293929    0.11880000
opls_144-177    H    0.48687998    0.90017992    0.72439928    0.05190000
opls_146-178    H    0.57608983    0.04666986    0.68371990    0.12260000
opls_185-179    H    0.40795988    0.99349995    0.29374103    0.06550000
opls_185-180    H    0.38792988    0.99254002    0.71709932    0.06720000
opls_144-181    H    0.45511006    0.08192001    0.15274074    0.12200000
opls_146-182    H    0.28869015    0.69818011    0.69238957    0.11930000
opls_146-183    H    0.23281018    0.65800014    0.39899032    0.11970000
opls_146-184    H    0.15822008    0.61535003    0.39528034    0.11950000
opls_146-185    H    0.16686002    0.51952015    0.95022046    0.11950000
opls_146-186    H    0.24198017    0.56271009    0.96293929    0.11890000
opls_144-187    H    0.09982010    0.58669995    0.72439928    0.05190000
opls_146-188    H    0.95333010    0.52942011    0.68371990    0.12260000
opls_185-189    H    0.00649997    0.41446003    0.29374103    0.06550000
opls_185-190    H    0.00746009    0.39539014    0.71709932    0.06710000
opls_144-191    H    0.91807989    0.37318994    0.15274074    0.12200000
opls_146-192    H    0.69817993    0.40948989    0.69238957    0.11930000
opls_146-193    H    0.65799996    0.42519003    0.39899032    0.11970000
opls_146-194    H    0.61535003    0.45713014    0.39528034    0.11950000
opls_146-195    H    0.51952005    0.35266000    0.95022046    0.11950000
opls_146-196    H    0.56270999    0.32073005    0.96293929    0.11880000
opls_144-197    H    0.58669981    0.48687987    0.72439928    0.05200000
opls_146-198    H    0.52941993    0.57608997    0.68371990    0.12260000
opls_185-199    H    0.41445986    0.40795998    0.29374103    0.06550000
opls_185-200    H    0.39538997    0.38793016    0.71709932    0.06710000
opls_144-201    H    0.37318994    0.45510996    0.15274074    0.12200000
opls_146-202    H    0.59051006    0.28868991    0.69238957    0.11930000
opls_146-203    H    0.57480995    0.23281011    0.39899032    0.11980000
opls_146-204    H    0.54287005    0.15821989    0.39528034    0.11950000
opls_146-205    H    0.64733998    0.16686015    0.95022046    0.11950000
opls_146-206    H    0.67926991    0.24198004    0.96293929    0.11880000
opls_144-207    H    0.51312002    0.09982008    0.72439928    0.05190000
opls_146-208    H    0.42391017    0.95333014    0.68371990    0.12260000
opls_185-209    H    0.59204012    0.00650005    0.29374103    0.06550000
opls_185-210    H    0.61207012    0.00745998    0.71709932    0.06720000
opls_144-211    H    0.54488994    0.91807999    0.15274074    0.12200000
opls_146-212    H    0.71130985    0.30181989    0.69238957    0.11930000
opls_146-213    H    0.76718982    0.34199986    0.39899032    0.11970000
opls_146-214    H    0.84177992    0.38464997    0.39528034    0.11960000
opls_146-215    H    0.83314013    0.48048015    0.95022046    0.11950000
opls_146-216    H    0.75801983    0.43728991    0.96293929    0.11880000
opls_144-217    H    0.90017990    0.41330005    0.72439928    0.05190000
opls_146-218    H    0.04666990    0.47057989    0.68371990    0.12260000
opls_185-219    H    0.99350003    0.58553997    0.29374103    0.06550000
opls_185-220    H    0.99253991    0.60460986    0.71709932    0.06710000
opls_144-221    H    0.08192011    0.62681006    0.15274074    0.12200000
