#======================================================================
# Crystal Data Generated By AuToFF
#----------------------------------------------------------------------

data_AuToFF_phase_1

_cell_length_a                         37.7445
_cell_length_b                         37.7445
_cell_length_c                         3.4666
_cell_angle_alpha                      90.00
_cell_angle_beta                       90.00
_cell_angle_gamma                      120.00
_symmetry_space_group_name_H-M_alt     'P 1'
_symmetry_space_group_IT_number        1

loop_
_space_group_symop_operation_xyz
   'x, y, z'

loop_
   _atom_site_label
   _atom_site_type_symbol
   _atom_site_fract_x
   _atom_site_fract_y
   _atom_site_fract_z
   _atom_site_charge
opls_146-0    H    0.40754998    0.71233002    0.50000000    0.23330000
opls_144-1    H    0.60365005    0.10120994    0.50000000    0.11000000
opls_146-2    H    0.69033996    0.24337993    0.50000000    0.09190000
opls_146-3    H    0.66165001    0.17109983    0.50000000    0.11040000
opls_146-4    H    0.56699987    0.22576994    0.50000000    0.09190000
opls_146-5    H    0.54022998    0.15371990    0.50000000    0.11000000
opls_146-6    H    0.57570007    0.03561003    0.50000000    0.09640000
opls_146-7    H    0.46338992    0.03911991    0.50000000    0.11120000
opls_146-8    H    0.28766983    0.69521991    0.50000000    0.23330000
opls_144-9    H    0.89879014    0.50244006    0.50000000    0.11000000
opls_146-10    H    0.75661986    0.44695987    0.50000000    0.09190000
opls_146-11    H    0.82889988    0.49054996    0.50000000    0.11040000
opls_146-12    H    0.77423004    0.34122988    0.50000000    0.09190000
opls_146-13    H    0.84627990    0.38650991    0.50000000    0.11000000
opls_146-14    H    0.96438987    0.54009000    0.50000000    0.09640000
opls_146-15    H    0.96088011    0.42426999    0.50000000    0.11120000
opls_146-16    H    0.30477992    0.59245007    0.50000000    0.23330000
opls_144-17    H    0.49756008    0.39635000    0.50000000    0.11000000
opls_146-18    H    0.55304002    0.30965990    0.50000000    0.09190000
opls_146-19    H    0.50944996    0.33834990    0.50000000    0.11040000
opls_146-20    H    0.65876994    0.43299987    0.50000000    0.09190000
opls_146-21    H    0.61348997    0.45976988    0.50000000    0.11000000
opls_146-22    H    0.45991005    0.42429997    0.50000000    0.09640000
opls_146-23    H    0.57572982    0.53660980    0.50000000    0.11120000
opls_146-24    H    0.59245002    0.28766998    0.50000000    0.23330000
opls_144-25    H    0.39634980    0.89878976    0.50000000    0.11000000
opls_146-26    H    0.30965988    0.75661977    0.50000000    0.09190000
opls_146-27    H    0.33834984    0.82889986    0.50000000    0.11040000
opls_146-28    H    0.43299997    0.77422976    0.50000000    0.09190000
opls_146-29    H    0.45976987    0.84627979    0.50000000    0.11000000
opls_146-30    H    0.42429993    0.96438997    0.50000000    0.09640000
opls_146-31    H    0.53660993    0.96087978    0.50000000    0.11120000
opls_146-32    H    0.71233017    0.30478009    0.50000000    0.23330000
opls_144-33    H    0.10120986    0.49755994    0.50000000    0.11000000
opls_146-34    H    0.24337999    0.55303983    0.50000000    0.09190000
opls_146-35    H    0.17110012    0.50945004    0.50000000    0.11040000
opls_146-36    H    0.22576981    0.65876981    0.50000000    0.09190000
opls_146-37    H    0.15371995    0.61348978    0.50000000    0.11000000
opls_146-38    H    0.03561013    0.45991000    0.50000000    0.09640000
opls_146-39    H    0.03911989    0.57573001    0.50000000    0.11120000
opls_146-40    H    0.69522008    0.40754993    0.50000000    0.23330000
opls_144-41    H    0.50243992    0.60365000    0.50000000    0.11000000
opls_146-42    H    0.44695983    0.69033979    0.50000000    0.09190000
opls_146-43    H    0.49054989    0.66164979    0.50000000    0.11040000
opls_146-44    H    0.34122991    0.56699982    0.50000000    0.09190000
opls_146-45    H    0.38650988    0.54022981    0.50000000    0.11000000
opls_146-46    H    0.54008995    0.57570003    0.50000000    0.09640000
opls_146-47    H    0.42427003    0.46338990    0.50000000    0.11120000
opls_145-48    C    0.69259007    0.31711990    0.50000000    -0.13840000
opls_700-49    C    0.64997003    0.28992006    0.50000000    0.05990000
opls_142-50    C    0.58224001    0.11225996    0.50000000    0.06640000
opls_700-51    C    0.59884982    0.15694986    0.50000000    0.05170000
opls_700-52    C    0.63213999    0.24359989    0.50000000    0.06000000
opls_145-53    C    0.65753000    0.22573996    0.50000000    -0.13810000
opls_145-54    C    0.64111001    0.18333991    0.50000000    -0.12740000
opls_145-55    C    0.58927989    0.21601000    0.50000000    -0.13670000
opls_145-56    C    0.57310990    0.17365003    0.50000000    -0.12500000
opls_145-57    C    0.52218992    0.04321993    0.50000000    0.18150000
opls_145-58    C    0.54279007    0.02076010    0.50000000    -0.17600000
opls_145-59    C    0.47942009    0.02205998    0.50000000    -0.17700000
opls_145-60    C    0.68287998    0.37546998    0.50000000    -0.13830000
opls_700-61    C    0.71007988    0.36004980    0.50000000    0.05990000
opls_142-62    C    0.88773986    0.46997984    0.50000000    0.06640000
opls_700-63    C    0.84304984    0.44189986    0.50000000    0.05170000
opls_700-64    C    0.75640013    0.38854003    0.50000000    0.06000000
opls_145-65    C    0.77426003    0.43178994    0.50000000    -0.13810000
opls_145-66    C    0.81665993    0.45777005    0.50000000    -0.12750000
opls_145-67    C    0.78399015    0.37327007    0.50000000    -0.13670000
opls_145-68    C    0.82635006    0.39946004    0.50000000    -0.12500000
opls_145-69    C    0.95678001    0.47897007    0.50000000    0.18150000
opls_145-70    C    0.97923991    0.52203000    0.50000000    -0.17610000
opls_145-71    C    0.97793979    0.45735980    0.50000000    -0.17700000
opls_145-72    C    0.62452980    0.30740982    0.50000000    -0.13830000
opls_700-73    C    0.63994994    0.35002983    0.50000000    0.05990000
opls_142-74    C    0.53001998    0.41775989    0.50000000    0.06640000
opls_700-75    C    0.55809992    0.40114997    0.50000000    0.05170000
opls_700-76    C    0.61146014    0.36786008    0.50000000    0.06000000
opls_145-77    C    0.56820998    0.34247010    0.50000000    -0.13790000
opls_145-78    C    0.54223006    0.35889004    0.50000000    -0.12750000
opls_145-79    C    0.62672997    0.41071993    0.50000000    -0.13670000
opls_145-80    C    0.60054004    0.42688993    0.50000000    -0.12500000
opls_145-81    C    0.52103008    0.47781000    0.50000000    0.18150000
opls_145-82    C    0.47797002    0.45720990    0.50000000    -0.17610000
opls_145-83    C    0.54263997    0.52057991    0.50000000    -0.17690000
opls_145-84    C    0.30740978    0.68287980    0.50000000    -0.13840000
opls_700-85    C    0.35002997    0.71007994    0.50000000    0.05990000
opls_142-86    C    0.41775999    0.88774004    0.50000000    0.06640000
opls_700-87    C    0.40115003    0.84304983    0.50000000    0.05170000
opls_700-88    C    0.36785985    0.75639981    0.50000000    0.06000000
opls_145-89    C    0.34247000    0.77426004    0.50000000    -0.13810000
opls_145-90    C    0.35888984    0.81665978    0.50000000    -0.12740000
opls_145-91    C    0.41072011    0.78399000    0.50000000    -0.13670000
opls_145-92    C    0.42689010    0.82634997    0.50000000    -0.12500000
opls_145-93    C    0.47780993    0.95677977    0.50000000    0.18150000
opls_145-94    C    0.45720993    0.97923990    0.50000000    -0.17610000
opls_145-95    C    0.52057991    0.97794002    0.50000000    -0.17700000
opls_145-96    C    0.31712002    0.62453002    0.50000000    -0.13840000
opls_700-97    C    0.28991997    0.63994989    0.50000000    0.05990000
opls_142-98    C    0.11225999    0.53001985    0.50000000    0.06640000
opls_700-99    C    0.15695001    0.55809984    0.50000000    0.05180000
opls_700-100    C    0.24359987    0.61145997    0.50000000    0.06000000
opls_145-101    C    0.22573997    0.56821006    0.50000000    -0.13810000
opls_145-102    C    0.18334007    0.54222995    0.50000000    -0.12750000
opls_145-103    C    0.21600985    0.62672993    0.50000000    -0.13670000
opls_145-104    C    0.17364994    0.60053996    0.50000000    -0.12500000
opls_145-105    C    0.04321999    0.52102993    0.50000000    0.18150000
opls_145-106    C    0.02076009    0.47797000    0.50000000    -0.17610000
opls_145-107    C    0.02206005    0.54263989    0.50000000    -0.17700000
opls_145-108    C    0.37547005    0.69258987    0.50000000    -0.13840000
opls_700-109    C    0.36004991    0.64996987    0.50000000    0.06000000
opls_142-110    C    0.46997987    0.58223980    0.50000000    0.06640000
opls_700-111    C    0.44190008    0.59885003    0.50000000    0.05170000
opls_700-112    C    0.38853986    0.63213992    0.50000000    0.06000000
opls_145-113    C    0.43179002    0.65752990    0.50000000    -0.13810000
opls_145-114    C    0.45776994    0.64110996    0.50000000    -0.12750000
opls_145-115    C    0.37327003    0.58928007    0.50000000    -0.13670000
opls_145-116    C    0.39945996    0.57311007    0.50000000    -0.12500000
opls_145-117    C    0.47896992    0.52219000    0.50000000    0.18150000
opls_145-118    C    0.52202982    0.54278980    0.50000000    -0.17610000
opls_145-119    C    0.45736003    0.47942009    0.50000000    -0.17700000
opls_750-120    N    0.54294999    0.08717010    0.50000000    -0.35590000
opls_750-121    N    0.91283006    0.45578000    0.50000000    -0.35600000
opls_750-122    N    0.54421995    0.45704990    0.50000000    -0.35600000
opls_750-123    N    0.45705001    0.91282990    0.50000000    -0.35600000
opls_750-124    N    0.08716994    0.54422000    0.50000000    -0.35590000
opls_750-125    N    0.45577990    0.54294979    0.50000000    -0.35600000
