#======================================================================
# Crystal Data Generated By AuToFF
#----------------------------------------------------------------------

data_AuToFF_phase_1

_cell_length_a                         37.2093
_cell_length_b                         37.2016
_cell_length_c                         3.5400
_cell_angle_alpha                      90.06
_cell_angle_beta                       89.98
_cell_angle_gamma                      120.05
_symmetry_space_group_name_H-M_alt     'P 1'
_symmetry_space_group_IT_number        1

loop_
_space_group_symop_operation_xyz
   'x, y, z'

loop_
   _atom_site_label
   _atom_site_type_symbol
   _atom_site_fract_x
   _atom_site_fract_y
   _atom_site_fract_z
   _atom_site_charge
opls_700-0    C    0.46294995    0.49578010    0.77125989    -0.03470000
opls_166-1    C    0.45044984    0.45294996    0.75637853    0.22400000
opls_145-2    C    0.47959990    0.44033011    0.82972034    -0.26880000
opls_700-3    C    0.52104982    0.46907002    0.92678814    -0.03480000
opls_166-4    C    0.53348984    0.51184006    0.93746893    0.21410000
opls_145-5    C    0.50430982    0.52431984    0.86950000    -0.24170000
opls_181-6    C    0.60682975    0.55038984    0.81112994    -0.19710000
opls_181-7    C    0.37615000    0.41692015    0.85696893    -0.18960000
opls_142-8    C    0.55085002    0.45451006    0.01562994    0.08110000
opls_142-9    C    0.43410991    0.51154989    0.68448870    0.07420000
opls_145-10    C    0.42079974    0.57021990    0.71461017    0.19260000
opls_145-11    C    0.56639997    0.39868006    0.07505085    0.19450000
opls_145-12    C    0.55002001    0.35775989    0.20179096    -0.16730000
opls_145-13    C    0.57560990    0.34039000    0.24396893    -0.12920000
opls_700-14    C    0.61809001    0.36345998    0.15505085    0.07090000
opls_145-15    C    0.63431999    0.40434013    0.02324859    -0.12740000
opls_145-16    C    0.60877977    0.42166001    0.98094068    -0.16740000
opls_145-17    C    0.43976979    0.61233984    0.80831921    -0.16810000
opls_145-18    C    0.41813000    0.63393001    0.77868927    -0.12930000
opls_700-19    C    0.37656003    0.61376005    0.65437853    0.06680000
opls_145-20    C    0.35733992    0.57130011    0.56114972    -0.12700000
opls_145-21    C    0.37914993    0.54965002    0.59088983    -0.18180000
opls_700-22    C    0.64571007    0.34539005    0.20487006    0.06850000
opls_700-23    C    0.35365985    0.63704991    0.62785028    0.07120000
opls_145-24    C    0.68671002    0.37039005    0.32137006    -0.16810000
opls_145-25    C    0.31229986    0.68276007    0.61259887    -0.16490000
opls_700-26    C    0.48644984    0.95024010    0.77270904    -0.03710000
opls_166-27    C    0.52870986    0.98159011    0.79048870    0.21670000
opls_145-28    C    0.53974994    0.02247008    0.88198870    -0.25410000
opls_700-29    C    0.51021974    0.03430986    0.97425989    -0.03450000
opls_166-30    C    0.46762998    0.00370994    0.96012994    0.27350000
opls_145-31    C    0.45606993    0.96065002    0.86424011    -0.20930000
opls_181-32    C    0.43198991    0.04203001    0.85364972    -0.19720000
opls_181-33    C    0.57011999    0.94936011    0.90378814    -0.18960000
opls_142-34    C    0.52504991    0.07846993    0.07712994    0.07660000
opls_142-35    C    0.47389986    0.90679996    0.66781921    0.07040000
opls_145-36    C    0.41919987    0.83658998    0.50853107    0.19440000
opls_145-37    C    0.58551988    0.14924986    0.11514124    0.19580000
opls_145-38    C    0.62644989    0.17183993    0.99272881    -0.17960000
opls_145-39    C    0.64828013    0.21493003    0.01324859    -0.07860000
opls_700-40    C    0.63156990    0.23745005    0.18468079    0.06360000
opls_145-41    C    0.58993999    0.21408989    0.31324011    -0.13090000
opls_145-42    C    0.56686993    0.17056010    0.27418079    -0.17830000
opls_145-43    C    0.37894992    0.81355983    0.36246893    -0.16870000
opls_145-44    C    0.35911000    0.77023988    0.34155085    -0.12870000
opls_700-45    C    0.37861991    0.74879006    0.47938983    0.06770000
opls_145-46    C    0.41989984    0.77217006    0.60800000    -0.12790000
opls_145-47    C    0.43998992    0.81549005    0.62112994    -0.16640000
opls_700-48    C    0.65499984    0.28466994    0.20861864    0.02380000
opls_700-49    C    0.35480987    0.70274986    0.52781921    0.06980000
opls_145-50    C    0.63093982    0.30342992    0.13714972    -0.17780000
opls_145-51    C    0.31122983    0.61795993    0.71924011    -0.17800000
opls_700-52    C    0.05039993    0.55468005    0.24972034    -0.04860000
opls_166-53    C    0.02225005    0.56911001    0.20262994    0.26880000
opls_145-54    C    0.97787008    0.54192013    0.30127119    -0.20630000
opls_700-55    C    0.96367999    0.50195010    0.44572034    -0.04880000
opls_166-56    C    0.99196985    0.48761000    0.48838983    0.26470000
opls_145-57    C    0.03597996    0.51466997    0.39153107    -0.22030000
opls_181-58    C    0.95629999    0.41406988    0.43400847    -0.21080000
opls_181-59    C    0.04164010    0.64030010    0.22642090    -0.19680000
opls_142-60    C    0.91958984    0.47440000    0.55000847    0.07640000
opls_142-61    C    0.09488983    0.58099995    0.15266102    0.07160000
opls_145-62    C    0.15912977    0.58435988    0.95000847    0.19160000
opls_145-63    C    0.84633986    0.44941003    0.43159040    0.19300000
opls_145-64    C    0.81789987    0.45895002    0.26766949    -0.17070000
opls_145-65    C    0.77560998    0.42887988    0.24535028    -0.13210000
opls_700-66    C    0.76005977    0.38860988    0.40079096    0.06280000
opls_145-67    C    0.78861991    0.38182004    0.59914972    -0.16880000
opls_145-68    C    0.83104008    0.41025013    0.59957910    -0.16580000
opls_145-69    C    0.17521995    0.56080998    0.79400847    -0.16580000
opls_145-70    C    0.21765008    0.57869013    0.71955932    -0.11720000
opls_700-71    C    0.24519977    0.62056996    0.80733898    0.07020000
opls_145-72    C    0.22894998    0.64414004    0.96876836    -0.13030000
opls_145-73    C    0.18642006    0.62633991    0.03692090    -0.16800000
opls_700-74    C    0.71463998    0.35538997    0.34992090    0.02360000
opls_700-75    C    0.29014999    0.64051012    0.70957062    0.06980000
opls_700-76    C    0.69836989    0.31096006    0.30970904    0.01900000
opls_145-77    C    0.37483989    0.67922998    0.52537853    -0.17790000
opls_182-78    C    0.72387990    0.29093004    0.42820056    0.03100000
opls_907-79    C    0.76988002    0.24466997    0.28964972    -0.12450000
opls_158-80    C    0.78638992    0.29001014    0.40612994    0.16490000
opls_136-81    C    0.83182981    0.31337994    0.28042938    -0.25120000
opls_275-82    C    0.84092996    0.27937987    0.14509040    0.01690000
opls_267-83    C    0.88220991    0.28450984    0.26948870    0.55410000
opls_179-84    O    0.57313009    0.54266013    0.05425989    -0.18340000
opls_179-85    O    0.41071995    0.42192992    0.63979096    -0.19660000
opls_179-86    O    0.43530005    0.01092994    0.06305085    -0.20170000
opls_179-87    O    0.56092004    0.97499003    0.67177966    -0.17950000
opls_179-88    O    0.98038988    0.44981987    0.66383898    -0.17660000
opls_179-89    O    0.03373995    0.60531991    0.99876836    -0.18060000
opls_268-90    O    0.88434998    0.25161007    0.43783051    -0.49920000
opls_269-91    O    0.91410996    0.31714993    0.20638983    -0.48020000
opls_180-92    O    0.76335000    0.30775990    0.25607062    -0.22550000
opls_750-93    N    0.44477990    0.54986011    0.76296893    -0.33230000
opls_750-94    N    0.53898010    0.41502008    0.01855932    -0.32970000
opls_750-95    N    0.43596974    0.88033984    0.57377966    -0.34370000
opls_750-96    N    0.56449007    0.10514992    0.05733051    -0.34830000
opls_750-97    N    0.11567003    0.56379011    0.03862994    -0.34830000
opls_750-98    N    0.89009987    0.47852991    0.39727966    -0.33640000
opls_901-99    N    0.80511006    0.23833997    0.22705085    -0.38360000
opls_146-100    H    0.46944008    0.40754009    0.80946045    0.11610000
opls_146-101    H    0.51453998    0.55712000    0.89148023    0.12000000
opls_185-102    H    0.61432986    0.57751985    0.62905085    0.07360000
opls_185-103    H    0.60033986    0.52329988    0.63268927    0.07340000
opls_185-104    H    0.63462981    0.55853986    0.98654802    0.07380000
opls_185-105    H    0.36177999    0.38645998    0.00283898    0.07360000
opls_185-106    H    0.35270989    0.41726007    0.66616102    0.07400000
opls_185-107    H    0.38490993    0.44172984    0.06890960    0.08290000
opls_144-108    H    0.58296000    0.47738993    0.08340960    0.08600000
opls_144-109    H    0.40418989    0.49086991    0.56198023    0.10100000
opls_146-110    H    0.51742006    0.33942997    0.27277966    0.11840000
opls_146-111    H    0.56264979    0.30928989    0.35550000    0.12240000
opls_146-112    H    0.66674000    0.42269998    0.94514124    0.11420000
opls_146-113    H    0.62198001    0.45247013    0.86183898    0.12350000
opls_146-114    H    0.47159986    0.62861988    0.90870904    0.11320000
opls_146-115    H    0.43378971    0.66627985    0.86288983    0.11520000
opls_146-116    H    0.32553984    0.55471983    0.46133898    0.11980000
opls_146-117    H    0.36311996    0.51710983    0.51766949    0.12120000
opls_146-118    H    0.69693996    0.40239008    0.39629944    0.11700000
opls_146-119    H    0.29635987    0.70038999    0.60918079    0.11880000
opls_146-120    H    0.57245006    0.04533004    0.87898870    0.11710000
opls_146-121    H    0.42349986    0.93725990    0.86139831    0.12350000
opls_185-122    H    0.40152990    0.02731991    0.71079944    0.08300000
opls_185-123    H    0.45765994    0.05830995    0.64690960    0.08420000
opls_185-124    H    0.43298001    0.06552013    0.05168927    0.07790000
opls_185-125    H    0.60032001    0.96907004    0.04625989    0.07370000
opls_185-126    H    0.57305992    0.92650987    0.72331073    0.07420000
opls_185-127    H    0.54558980    0.93152011    0.11459040    0.07360000
opls_144-128    H    0.50348005    0.08891008    0.14520056    0.12250000
opls_144-129    H    0.49643995    0.89692989    0.68020904    0.10540000
opls_146-130    H    0.64123008    0.15595014    0.86702825    0.11640000
opls_146-131    H    0.67851989    0.22968997    0.89451130    0.24930000
opls_146-132    H    0.57525008    0.22945999    0.44857910    0.11710000
opls_146-133    H    0.53524005    0.15388005    0.37685876    0.12140000
opls_146-134    H    0.36262975    0.82930983    0.27098023    0.11530000
opls_146-135    H    0.32813993    0.75346988    0.22303955    0.11860000
opls_146-136    H    0.43602982    0.75712988    0.72029096    0.12210000
opls_146-137    H    0.47081993    0.83184991    0.74055932    0.11940000
opls_146-138    H    0.59943016    0.28476010    0.03333051    0.11340000
opls_146-139    H    0.29489978    0.58594989    0.81166949    0.11830000
opls_146-140    H    0.95656998    0.55339989    0.25724859    0.11610000
opls_146-141    H    0.05713989    0.50305995    0.43440113    0.11830000
opls_185-142    H    0.94418997    0.38588014    0.61498023    0.07240000
opls_185-143    H    0.97640006    0.41116000    0.21974859    0.07320000
opls_185-144    H    0.92921975    0.41483985    0.30220904    0.06110000
opls_185-145    H    0.04854987    0.66684985    0.04029944    0.08090000
opls_185-146    H    0.06925011    0.64960009    0.40718927    0.07390000
opls_185-147    H    0.01385976    0.63344991    0.39937853    0.07970000
opls_144-148    H    0.91248002    0.44769009    0.72600000    0.09970000
opls_144-149    H    0.10922987    0.61453007    0.16801130    0.10070000
opls_146-150    H    0.82876011    0.48895005    0.13625989    0.12000000
opls_146-151    H    0.75562003    0.43685011    0.08751977    0.11640000
opls_146-152    H    0.77866986    0.35522988    0.76866949    0.24810000
opls_146-153    H    0.85106007    0.40118007    0.73964972    0.11810000
opls_146-154    H    0.15452991    0.52863012    0.72159040    0.11980000
opls_146-155    H    0.22848983    0.56021000    0.57731921    0.11950000
opls_146-156    H    0.24907983    0.67627986    0.04942938    0.12000000
opls_146-157    H    0.17545006    0.64525012    0.16805932    0.11750000
opls_146-158    H    0.40714987    0.69380996    0.44327966    0.11850000
opls_185-159    H    0.70793988    0.25769005    0.39176836    0.08850000
opls_185-160    H    0.72684998    0.29475007    0.72572881    0.11110000
opls_140-161    H    0.75099012    0.23765011    0.03618079    0.10490000
opls_140-162    H    0.74773987    0.22128992    0.48850000    0.08110000
opls_185-163    H    0.78643987    0.29171988    0.70553955    0.11210000
opls_140-164    H    0.85376988    0.33308987    0.50144068    0.11380000
opls_140-165    H    0.83686984    0.33654996    0.06177119    0.12020000
opls_140-166    H    0.84326985    0.28136990    0.84712994    0.10850000
opls_910-167    H    0.80961998    0.22581987    0.47435876    0.26980000
opls_270-168    H    0.91387013    0.25934014    0.50403955    0.30640000
