#======================================================================
# Crystal Data Generated By AuToFF
#----------------------------------------------------------------------

data_AuToFF_phase_1

_cell_length_a                         38.5200
_cell_length_b                         38.5200
_cell_length_c                         3.3800
_cell_angle_alpha                      90.00
_cell_angle_beta                       90.00
_cell_angle_gamma                      120.00
_symmetry_space_group_name_H-M_alt     'P 1'
_symmetry_space_group_IT_number        1

loop_
_space_group_symop_operation_xyz
   'x, y, z'

loop_
   _atom_site_label
   _atom_site_type_symbol
   _atom_site_fract_x
   _atom_site_fract_y
   _atom_site_fract_z
   _atom_site_charge
opls_145-0    C    0.02290007    0.54269994    0.50000000    -0.07830000
opls_166-1    C    0.15210010    0.59410000    0.50000000    0.09680000
opls_700-2    C    0.18850004    0.63069998    0.50000000    0.01880000
opls_145-3    C    0.18849993    0.66729997    0.50000000    -0.19000000
opls_145-4    C    0.22529995    0.70409991    0.50000000    -0.14610000
opls_145-5    C    0.26210006    0.70409991    0.50000000    0.03410000
opls_145-6    C    0.26210010    0.66740010    0.50000000    -0.13930000
opls_700-7    C    0.22529989    0.63069998    0.50000000    0.02520000
opls_145-8    C    0.45729996    0.48020012    0.50000000    -0.07830000
opls_166-9    C    0.40590006    0.55800002    0.50000000    0.09680000
opls_700-10    C    0.36930009    0.55780007    0.50000000    0.01880000
opls_145-11    C    0.33269999    0.52120009    0.50000000    -0.19000000
opls_145-12    C    0.29590015    0.52120009    0.50000000    -0.14620000
opls_145-13    C    0.29590006    0.55800002    0.50000000    0.03410000
opls_145-14    C    0.33259991    0.59469983    0.50000000    -0.13930000
opls_700-15    C    0.36930000    0.59460001    0.50000000    0.02520000
opls_145-16    C    0.51979997    0.97709994    0.50000000    -0.07830000
opls_166-17    C    0.44200010    0.84789999    0.50000000    0.09680000
opls_700-18    C    0.44219987    0.81149994    0.50000000    0.01880000
opls_145-19    C    0.47880007    0.81149994    0.50000000    -0.18990000
opls_145-20    C    0.47879990    0.77470001    0.50000000    -0.14620000
opls_145-21    C    0.44200014    0.73790008    0.50000000    0.03410000
opls_145-22    C    0.40529999    0.73790008    0.50000000    -0.13930000
opls_700-23    C    0.40540011    0.77470001    0.50000000    0.02520000
opls_145-24    C    0.97709993    0.45730006    0.50000000    -0.07820000
opls_166-25    C    0.84789990    0.40590000    0.50000000    0.09680000
opls_700-26    C    0.81149996    0.36930002    0.50000000    0.01880000
opls_145-27    C    0.81150007    0.33270003    0.50000000    -0.19000000
opls_145-28    C    0.77470005    0.29590009    0.50000000    -0.14620000
opls_145-29    C    0.73789994    0.29590009    0.50000000    0.03410000
opls_145-30    C    0.73789990    0.33259990    0.50000000    -0.13930000
opls_700-31    C    0.77470011    0.36930002    0.50000000    0.02520000
opls_145-32    C    0.54270004    0.51979988    0.50000000    -0.07830000
opls_166-33    C    0.59409994    0.44199998    0.50000000    0.09680000
opls_700-34    C    0.63069991    0.44219993    0.50000000    0.01880000
opls_145-35    C    0.66730001    0.47879991    0.50000000    -0.19000000
opls_145-36    C    0.70409985    0.47879991    0.50000000    -0.14620000
opls_145-37    C    0.70409994    0.44199998    0.50000000    0.03410000
opls_145-38    C    0.66739994    0.40529987    0.50000000    -0.13930000
opls_700-39    C    0.63070000    0.40539999    0.50000000    0.02520000
opls_145-40    C    0.48020003    0.02290006    0.50000000    -0.07830000
opls_166-41    C    0.55799990    0.15210001    0.50000000    0.09680000
opls_700-42    C    0.55780013    0.18850006    0.50000000    0.01880000
opls_145-43    C    0.52119993    0.18850006    0.50000000    -0.19000000
opls_145-44    C    0.52120010    0.22529999    0.50000000    -0.14620000
opls_145-45    C    0.55799986    0.26209992    0.50000000    0.03410000
opls_145-46    C    0.59470001    0.26209992    0.50000000    -0.13930000
opls_700-47    C    0.59459989    0.22529999    0.50000000    0.02520000
opls_145-48    C    0.54270003    0.02290006    0.50000000    -0.07830000
opls_166-49    C    0.59410011    0.15210001    0.50000000    0.09680000
opls_700-50    C    0.63069993    0.18850006    0.50000000    0.01880000
opls_145-51    C    0.66730013    0.18850006    0.50000000    -0.19000000
opls_145-52    C    0.70409989    0.22529999    0.50000000    -0.14620000
opls_145-53    C    0.70410007    0.26209992    0.50000000    0.03410000
opls_145-54    C    0.66739991    0.26209992    0.50000000    -0.13930000
opls_700-55    C    0.63070010    0.22529999    0.50000000    0.02520000
opls_145-56    C    0.48020014    0.45730006    0.50000000    -0.07830000
opls_166-57    C    0.55800011    0.40590000    0.50000000    0.09680000
opls_700-58    C    0.55780006    0.36930002    0.50000000    0.01880000
opls_145-59    C    0.52119996    0.33270003    0.50000000    -0.19000000
opls_145-60    C    0.52120005    0.29590009    0.50000000    -0.14620000
opls_145-61    C    0.55800015    0.29590009    0.50000000    0.03410000
opls_145-62    C    0.59470000    0.33259990    0.50000000    -0.13930000
opls_700-63    C    0.59459990    0.36930002    0.50000000    0.02520000
opls_145-64    C    0.97709983    0.51979988    0.50000000    -0.07830000
opls_166-65    C    0.84790004    0.44199998    0.50000000    0.09680000
opls_700-66    C    0.81150002    0.44219993    0.50000000    0.01880000
opls_145-67    C    0.81149991    0.47879991    0.50000000    -0.19000000
opls_145-68    C    0.77470006    0.47879991    0.50000000    -0.14620000
opls_145-69    C    0.73790004    0.44199998    0.50000000    0.03410000
opls_145-70    C    0.73789994    0.40529987    0.50000000    -0.13930000
opls_700-71    C    0.77470000    0.40539999    0.50000000    0.02520000
opls_145-72    C    0.45729997    0.97709994    0.50000000    -0.07830000
opls_166-73    C    0.40589989    0.84789999    0.50000000    0.09680000
opls_700-74    C    0.36930007    0.81149994    0.50000000    0.01880000
opls_145-75    C    0.33269987    0.81149994    0.50000000    -0.19000000
opls_145-76    C    0.29590011    0.77470001    0.50000000    -0.14620000
opls_145-77    C    0.29589993    0.73790008    0.50000000    0.03410000
opls_145-78    C    0.33260009    0.73790008    0.50000000    -0.13930000
opls_700-79    C    0.36929990    0.77470001    0.50000000    0.02520000
opls_145-80    C    0.51979986    0.54269994    0.50000000    -0.07830000
opls_166-81    C    0.44199989    0.59410000    0.50000000    0.09680000
opls_700-82    C    0.44219994    0.63069998    0.50000000    0.01880000
opls_145-83    C    0.47880004    0.66729997    0.50000000    -0.19000000
opls_145-84    C    0.47879995    0.70409991    0.50000000    -0.14620000
opls_145-85    C    0.44199985    0.70409991    0.50000000    0.03410000
opls_145-86    C    0.40530000    0.66740010    0.50000000    -0.13930000
opls_700-87    C    0.40540010    0.63069998    0.50000000    0.02520000
opls_145-88    C    0.02290017    0.48020012    0.50000000    -0.07830000
opls_166-89    C    0.15209996    0.55800002    0.50000000    0.09680000
opls_700-90    C    0.18849998    0.55780007    0.50000000    0.01880000
opls_145-91    C    0.18850009    0.52120009    0.50000000    -0.19000000
opls_145-92    C    0.22529994    0.52120009    0.50000000    -0.14620000
opls_145-93    C    0.26209996    0.55800002    0.50000000    0.03410000
opls_145-94    C    0.26209991    0.59469983    0.50000000    -0.13930000
opls_700-95    C    0.22530000    0.59460001    0.50000000    0.02520000
opls_145-96    C    0.04409999    0.52204992    0.50000000    -0.27220000
opls_145-97    C    0.47794994    0.52204992    0.50000000    -0.27220000
opls_145-98    C    0.47794993    0.95589985    0.50000000    -0.27220000
opls_145-99    C    0.95590001    0.47795008    0.50000000    -0.27220000
opls_145-100    C    0.52205006    0.47795008    0.50000000    -0.27210000
opls_145-101    C    0.52205007    0.04410015    0.50000000    -0.27220000
opls_167-102    O    0.11179988    0.58539987    0.50000000    -0.38640000
opls_167-103    O    0.41459997    0.52639983    0.50000000    -0.38630000
opls_167-104    O    0.47360000    0.88819999    0.50000000    -0.38630000
opls_167-105    O    0.88820012    0.41460013    0.50000000    -0.38640000
opls_167-106    O    0.58539988    0.47359987    0.50000000    -0.38640000
opls_167-107    O    0.52640000    0.11180001    0.50000000    -0.38640000
opls_167-108    O    0.58540000    0.11180001    0.50000000    -0.38640000
opls_167-109    O    0.52640001    0.41460013    0.50000000    -0.38640000
opls_167-110    O    0.88819998    0.47359987    0.50000000    -0.38630000
opls_167-111    O    0.41460000    0.88819999    0.50000000    -0.38620000
opls_167-112    O    0.47359999    0.58539987    0.50000000    -0.38640000
opls_167-113    O    0.11179987    0.52639983    0.50000000    -0.38630000
opls_146-114    H    0.03849005    0.57525008    0.50000000    0.10130000
opls_146-115    H    0.16030996    0.66726010    0.50000000    0.10430000
opls_146-116    H    0.22037994    0.72906985    0.50000000    0.21550000
opls_146-117    H    0.28676007    0.66668006    0.50000000    0.22110000
opls_146-118    H    0.42475003    0.46323994    0.50000000    0.10130000
opls_146-119    H    0.33273991    0.49304991    0.50000000    0.10430000
opls_146-120    H    0.27092996    0.49131007    0.50000000    0.21550000
opls_146-121    H    0.33332004    0.62007986    0.50000000    0.22100000
opls_146-122    H    0.53675992    0.96150998    0.50000000    0.10130000
opls_146-123    H    0.50694987    0.83968998    0.50000000    0.10430000
opls_146-124    H    0.50869010    0.77962008    0.50000000    0.21560000
opls_146-125    H    0.37992015    0.71324009    0.50000000    0.22100000
opls_146-126    H    0.96150995    0.42474992    0.50000000    0.10130000
opls_146-127    H    0.83969004    0.33273990    0.50000000    0.10430000
opls_146-128    H    0.77961991    0.27092985    0.50000000    0.21550000
opls_146-129    H    0.71323993    0.33331994    0.50000000    0.22100000
opls_146-130    H    0.57524997    0.53676006    0.50000000    0.10130000
opls_146-131    H    0.66726009    0.50695009    0.50000000    0.10430000
opls_146-132    H    0.72907004    0.50868993    0.50000000    0.21550000
opls_146-133    H    0.66667981    0.37991984    0.50000000    0.22100000
opls_146-134    H    0.46324008    0.03849002    0.50000000    0.10130000
opls_146-135    H    0.49305013    0.16031002    0.50000000    0.10430000
opls_146-136    H    0.49130990    0.22037992    0.50000000    0.21560000
opls_146-137    H    0.62007985    0.28675991    0.50000000    0.22100000
opls_146-138    H    0.57524994    0.03849002    0.50000000    0.10130000
opls_146-139    H    0.66725989    0.16031002    0.50000000    0.10430000
opls_146-140    H    0.72907002    0.22037992    0.50000000    0.21550000
opls_146-141    H    0.66668006    0.28675991    0.50000000    0.22100000
opls_146-142    H    0.46323997    0.42474992    0.50000000    0.10130000
opls_146-143    H    0.49304985    0.33273990    0.50000000    0.10430000
opls_146-144    H    0.49130994    0.27092985    0.50000000    0.21550000
opls_146-145    H    0.62008001    0.33331994    0.50000000    0.22100000
opls_146-146    H    0.96151009    0.53676006    0.50000000    0.10130000
opls_146-147    H    0.83969000    0.50695009    0.50000000    0.10430000
opls_146-148    H    0.77961989    0.50868993    0.50000000    0.21560000
opls_146-149    H    0.71324004    0.37991984    0.50000000    0.22100000
opls_146-150    H    0.42475006    0.96150998    0.50000000    0.10130000
opls_146-151    H    0.33274011    0.83968998    0.50000000    0.10430000
opls_146-152    H    0.27092998    0.77962008    0.50000000    0.21550000
opls_146-153    H    0.33331994    0.71324009    0.50000000    0.22100000
opls_146-154    H    0.53676003    0.57525008    0.50000000    0.10140000
opls_146-155    H    0.50695015    0.66726010    0.50000000    0.10430000
opls_146-156    H    0.50868991    0.72906985    0.50000000    0.21550000
opls_146-157    H    0.37991999    0.66668006    0.50000000    0.22100000
opls_146-158    H    0.03848991    0.46323994    0.50000000    0.10130000
opls_146-159    H    0.16031000    0.49304991    0.50000000    0.10430000
opls_146-160    H    0.22038011    0.49131007    0.50000000    0.21550000
opls_146-161    H    0.28675981    0.62007986    0.50000000    0.22100000
MOF2_B_2-162    B    0.08679989    0.54339989    0.50000000    0.51840000
MOF2_B_2-163    B    0.45660000    0.54339989    0.50000000    0.51830000
MOF2_B_2-164    B    0.45659996    0.91319992    0.50000000    0.51840000
MOF2_B_2-165    B    0.91320011    0.45660011    0.50000000    0.51830000
MOF2_B_2-166    B    0.54340000    0.45660011    0.50000000    0.51840000
MOF2_B_2-167    B    0.54340004    0.08680008    0.50000000    0.51830000
