#======================================================================
# Crystal Data Generated By AuToFF
#----------------------------------------------------------------------

data_AuToFF_phase_1

_cell_length_a                         32.3500
_cell_length_b                         18.3600
_cell_length_c                         7.6400
_cell_angle_alpha                      90.00
_cell_angle_beta                       90.00
_cell_angle_gamma                      122.04
_symmetry_space_group_name_H-M_alt     'P 1'
_symmetry_space_group_IT_number        1

loop_
_space_group_symop_operation_xyz
   'x, y, z'

loop_
   _atom_site_label
   _atom_site_type_symbol
   _atom_site_fract_x
   _atom_site_fract_y
   _atom_site_fract_z
   _atom_site_charge
opls_146-0    H    0.17118989    0.09727970    0.89050000    0.08620000
opls_146-1    H    0.24510980    0.09970977    0.90509948    0.06710000
opls_146-2    H    0.32447984    0.36393982    0.72376047    0.08720000
opls_146-3    H    0.25273994    0.36759005    0.74798953    0.08020000
opls_146-4    H    0.22993989    0.38628973    0.02351047    0.09140000
opls_146-5    H    0.24724003    0.52995013    0.98306021    0.11520000
opls_146-6    H    0.12371018    0.43188011    0.63254974    0.11330000
opls_146-7    H    0.11126001    0.29025012    0.65351963    0.11520000
opls_146-8    H    0.06749999    0.20881981    0.82050000    0.11030000
opls_146-9    H    0.99303986    0.08843971    0.91539005    0.06980000
opls_146-10    H    0.07013985    0.98990000    0.18798953    0.07020000
opls_146-11    H    0.14632980    0.11580975    0.10651963    0.08720000
opls_144-12    H    0.17178011    0.58968013    0.70020026    0.07130000
opls_146-13    H    0.30262002    0.10414968    0.78418979    0.11530000
opls_146-14    H    0.45774017    0.35813002    0.97185995    0.09000000
opls_146-15    H    0.44829017    0.11479005    0.80415969    0.06580000
opls_146-16    H    0.51710996    0.10852020    0.89959948    0.11570000
opls_146-17    H    0.56455009    0.32992019    0.23015969    0.11080000
opls_146-18    H    0.49551989    0.33416991    0.14771990    0.07900000
opls_146-19    H    0.49687994    0.04890008    0.14632984    0.11010000
opls_146-20    H    0.48271016    0.90952988    0.17012958    0.06980000
opls_146-21    H    0.63686992    0.01466006    0.23892016    0.07570000
opls_146-22    H    0.65265004    0.15716005    0.21173037    0.06580000
opls_146-23    H    0.66275021    0.22294015    0.95710995    0.12480000
opls_146-24    H    0.74657007    0.34396985    0.96162958    0.06710000
opls_146-25    H    0.70471987    0.47876970    0.31276047    0.11010000
opls_146-26    H    0.62368011    0.35408976    0.32937042    0.09420000
opls_144-27    H    0.35863021    0.40000013    0.96395026    0.08290000
opls_144-28    H    0.80912997    0.48729999    0.04898953    0.07230000
opls_146-29    H    0.52702016    0.58400012    0.99551963    0.11250000
opls_146-30    H    0.55940000    0.73154015    0.08945026    0.09420000
opls_146-31    H    0.41209002    0.67266987    0.17225000    0.07140000
opls_146-32    H    0.37971019    0.52514012    0.07775000    0.06990000
opls_146-33    H    0.32747017    0.75925009    0.94445026    0.11780000
opls_146-34    H    0.36715992    0.91494965    0.93145942    0.06580000
opls_146-35    H    0.23866004    0.88572012    0.68270026    0.10930000
opls_146-36    H    0.19890998    0.72975969    0.69529058    0.11500000
opls_146-37    H    0.88353987    0.59089966    0.11145942    0.07520000
opls_146-38    H    0.96022987    0.72895973    0.09273037    0.07140000
opls_146-39    H    0.88832996    0.85709972    0.27803010    0.07570000
opls_146-40    H    0.81130003    0.71871966    0.29701047    0.12100000
opls_144-41    H    0.38631997    0.04746016    0.97048037    0.07470000
opls_144-42    H    0.58097012    0.85494980    0.22118979    0.06990000
opls_144-43    H    0.94466005    0.95328968    0.06531021    0.07040000
opls_146-44    H    0.17118989    0.09727970    0.39050000    0.08620000
opls_146-45    H    0.24510980    0.09970977    0.40509948    0.06710000
opls_146-46    H    0.32447984    0.36393982    0.22376047    0.08720000
opls_146-47    H    0.25273994    0.36759005    0.24798953    0.08020000
opls_146-48    H    0.22993989    0.38628973    0.52351047    0.09140000
opls_146-49    H    0.24724003    0.52995013    0.48306021    0.11520000
opls_146-50    H    0.12371018    0.43188011    0.13254974    0.11320000
opls_146-51    H    0.11126001    0.29025012    0.15351963    0.11520000
opls_146-52    H    0.06749999    0.20881981    0.32050000    0.11030000
opls_146-53    H    0.99303986    0.08843971    0.41539005    0.06980000
opls_146-54    H    0.07013985    0.98990000    0.68798953    0.07020000
opls_146-55    H    0.14632980    0.11580975    0.60651963    0.08720000
opls_144-56    H    0.17178011    0.58968013    0.20020026    0.07130000
opls_146-57    H    0.30262002    0.10414968    0.28418979    0.11530000
opls_146-58    H    0.45774017    0.35813002    0.47185995    0.09000000
opls_146-59    H    0.44829017    0.11479005    0.30415969    0.06580000
opls_146-60    H    0.51710996    0.10852020    0.39959948    0.11570000
opls_146-61    H    0.56455009    0.32992019    0.73015969    0.11080000
opls_146-62    H    0.49551989    0.33416991    0.64771990    0.07900000
opls_146-63    H    0.49687994    0.04890008    0.64632984    0.11010000
opls_146-64    H    0.48271016    0.90952988    0.67012958    0.06980000
opls_146-65    H    0.63686992    0.01466006    0.73892016    0.07570000
opls_146-66    H    0.65265004    0.15716005    0.71173037    0.06580000
opls_146-67    H    0.66275021    0.22294015    0.45710995    0.12470000
opls_146-68    H    0.74657007    0.34396985    0.46162958    0.06710000
opls_146-69    H    0.70471987    0.47876970    0.81276047    0.11010000
opls_146-70    H    0.62368011    0.35408976    0.82937042    0.09420000
opls_144-71    H    0.35863021    0.40000013    0.46395026    0.08290000
opls_144-72    H    0.80912997    0.48729999    0.54898953    0.07220000
opls_146-73    H    0.52702016    0.58400012    0.49551963    0.11250000
opls_146-74    H    0.55940000    0.73154015    0.58943979    0.09420000
opls_146-75    H    0.41209002    0.67266987    0.67225000    0.07140000
opls_146-76    H    0.37971019    0.52514012    0.57775000    0.06990000
opls_146-77    H    0.32747017    0.75925009    0.44445026    0.11780000
opls_146-78    H    0.36715992    0.91494965    0.43145942    0.06580000
opls_146-79    H    0.23866004    0.88572012    0.18270026    0.10930000
opls_146-80    H    0.19890998    0.72975969    0.19529058    0.11500000
opls_146-81    H    0.88353987    0.59089966    0.61145942    0.07520000
opls_146-82    H    0.96022987    0.72895973    0.59273037    0.07140000
opls_146-83    H    0.88832996    0.85709972    0.77803010    0.07570000
opls_146-84    H    0.81130003    0.71871966    0.79701047    0.12100000
opls_144-85    H    0.38631997    0.04746016    0.47046990    0.07260000
opls_144-86    H    0.58097012    0.85494980    0.72118979    0.06990000
opls_144-87    H    0.94466005    0.95328968    0.56531021    0.07040000
opls_916-88    C    0.16816981    0.32451969    0.84745942    0.17140000
opls_916-89    C    0.11577990    0.17146993    0.93779058    0.20900000
opls_916-90    C    0.20467013    0.23560000    0.84434948    0.22520000
opls_145-91    C    0.20489009    0.15978994    0.86929974    -0.15860000
opls_145-92    C    0.24740004    0.15925985    0.86520942    -0.12290000
opls_700-93    C    0.29353019    0.23409005    0.82484948    0.07460000
opls_145-94    C    0.29133009    0.30550003    0.76979058    -0.12030000
opls_145-95    C    0.24935993    0.30706010    0.78579058    -0.16090000
opls_145-96    C    0.20628988    0.39562961    0.93587958    -0.15480000
opls_145-97    C    0.21593008    0.47791963    0.91181937    -0.11000000
opls_700-98    C    0.18676019    0.49447003    0.80431937    0.03150000
opls_145-99    C    0.14730002    0.42318020    0.72237958    -0.12120000
opls_145-100    C    0.13891020    0.34089018    0.73893063    -0.17310000
opls_145-101    C    0.07062999    0.16252971    0.90018063    -0.15940000
opls_145-102    C    0.02662990    0.09198972    0.95623953    -0.11760000
opls_700-103    C    0.02411001    0.02522012    0.05326963    0.06840000
opls_145-104    C    0.06893009    0.03704018    0.10304974    -0.12060000
opls_145-105    C    0.11306996    0.10847972    0.05070026    -0.16910000
opls_142-106    C    0.19772016    0.58086006    0.77609031    0.09020000
opls_700-107    C    0.33848001    0.23719027    0.84893063    0.03650000
opls_145-108    C    0.33724990    0.15968007    0.83018979    -0.15750000
opls_700-109    C    0.37401010    0.14793004    0.88126963    0.03600000
opls_700-110    C    0.41981994    0.22289967    0.92932984    0.03670000
opls_145-111    C    0.42233022    0.30191019    0.93457984    -0.15300000
opls_700-112    C    0.38351022    0.31160025    0.90765969    0.03910000
opls_700-113    C    0.46283010    0.22221987    0.97345026    0.07860000
opls_145-114    C    0.47232997    0.16085976    0.90420026    -0.12100000
opls_145-115    C    0.51222006    0.15813028    0.95593979    -0.15140000
opls_916-116    C    0.54685990    0.21584978    0.07687958    0.17450000
opls_145-117    C    0.54032010    0.28194986    0.13401047    -0.15470000
opls_145-118    C    0.49981003    0.28437993    0.08650000    -0.12280000
opls_916-119    C    0.63500015    0.27811008    0.13775000    0.17810000
opls_916-120    C    0.57703005    0.11910981    0.15956021    0.20010000
opls_145-121    C    0.52957013    0.04510013    0.15746990    -0.16820000
opls_145-122    C    0.52088012    0.96317957    0.17715052    -0.10830000
opls_700-123    C    0.55859998    0.94817960    0.20134948    0.07240000
opls_145-124    C    0.60556007    0.02135977    0.21487958    -0.12080000
opls_145-125    C    0.61462008    0.10399997    0.19609948    -0.17460000
opls_145-126    C    0.67198003    0.27859969    0.03990052    -0.16910000
opls_145-127    C    0.71975990    0.34826969    0.04196990    -0.12020000
opls_700-128    C    0.73345014    0.42338003    0.13543063    0.06670000
opls_145-129    C    0.69647985    0.42308960    0.23189005    -0.12120000
opls_145-130    C    0.64892983    0.35243974    0.23581937    -0.16620000
opls_142-131    C    0.39071996    0.39521003    0.94596990    0.08750000
opls_142-132    C    0.78348994    0.49523978    0.12901047    0.08350000
opls_145-133    C    0.26009006    0.73218011    0.82209031    0.23140000
opls_145-134    C    0.45101995    0.54316963    0.02756021    0.23120000
opls_145-135    C    0.84078996    0.64366972    0.20348953    0.21380000
opls_145-136    C    0.50139985    0.60305962    0.03517016    -0.15370000
opls_145-137    C    0.51972013    0.68653961    0.08979058    -0.15430000
opls_145-138    C    0.48819014    0.71365970    0.14017016    0.21630000
opls_145-139    C    0.43777003    0.65342982    0.13473037    -0.15860000
opls_145-140    C    0.41942990    0.56987979    0.08001963    -0.16010000
opls_145-141    C    0.30762020    0.78664004    0.88575000    -0.15470000
opls_145-142    C    0.33010995    0.87497952    0.87835995    -0.15570000
opls_145-143    C    0.30570999    0.91254979    0.80679974    0.23440000
opls_145-144    C    0.25851031    0.85810014    0.74040052    -0.15430000
opls_145-145    C    0.23601004    0.76974010    0.74785995    -0.15550000
opls_145-146    C    0.88388002    0.64888967    0.14951047    -0.16360000
opls_145-147    C    0.92759007    0.72723003    0.13956937    -0.15570000
opls_145-148    C    0.93038001    0.80410991    0.18160995    0.21420000
opls_145-149    C    0.88769995    0.79867985    0.24115969    -0.16240000
opls_145-150    C    0.84406991    0.72027973    0.25229974    -0.15890000
opls_142-151    C    0.36375004    0.06077026    0.88501963    0.08490000
opls_142-152    C    0.54935002    0.86208000    0.21198037    0.08890000
opls_142-153    C    0.97703999    0.95097977    0.09882984    0.08510000
opls_916-154    C    0.16816981    0.32451969    0.34745942    0.17150000
opls_916-155    C    0.11577990    0.17146993    0.43779058    0.20900000
opls_916-156    C    0.20467013    0.23560000    0.34434948    0.22520000
opls_145-157    C    0.20489009    0.15978994    0.36929974    -0.15860000
opls_145-158    C    0.24740004    0.15925985    0.36520942    -0.12290000
opls_700-159    C    0.29353019    0.23409005    0.32484948    0.07460000
opls_145-160    C    0.29133009    0.30550003    0.26979058    -0.12020000
opls_145-161    C    0.24935993    0.30706010    0.28579058    -0.16090000
opls_145-162    C    0.20628988    0.39562961    0.43587958    -0.15480000
opls_145-163    C    0.21593008    0.47791963    0.41181937    -0.11000000
opls_700-164    C    0.18676019    0.49447003    0.30431937    0.03150000
opls_145-165    C    0.14730002    0.42318020    0.22237958    -0.12120000
opls_145-166    C    0.13891020    0.34089018    0.23893063    -0.17310000
opls_145-167    C    0.07062999    0.16252971    0.40018063    -0.15940000
opls_145-168    C    0.02662990    0.09198972    0.45623953    -0.11760000
opls_700-169    C    0.02411001    0.02522012    0.55326963    0.06840000
opls_145-170    C    0.06893009    0.03704018    0.60304974    -0.12060000
opls_145-171    C    0.11306996    0.10847972    0.55070942    -0.16900000
opls_142-172    C    0.19772016    0.58086006    0.27609031    0.09020000
opls_700-173    C    0.33848001    0.23719027    0.34893063    0.03650000
opls_145-174    C    0.33724990    0.15968007    0.33018979    -0.15750000
opls_700-175    C    0.37401010    0.14793004    0.38126963    0.03600000
opls_700-176    C    0.41981994    0.22289967    0.42932984    0.03670000
opls_145-177    C    0.42233022    0.30191019    0.43457984    -0.15300000
opls_700-178    C    0.38351022    0.31160025    0.40765052    0.03910000
opls_700-179    C    0.46283010    0.22221987    0.47345026    0.07860000
opls_145-180    C    0.47232997    0.16085976    0.40420026    -0.12100000
opls_145-181    C    0.51222006    0.15813028    0.45593979    -0.15140000
opls_916-182    C    0.54685990    0.21584978    0.57687958    0.17450000
opls_145-183    C    0.54032010    0.28194986    0.63401047    -0.15480000
opls_145-184    C    0.49981003    0.28437993    0.58650000    -0.12280000
opls_916-185    C    0.63500015    0.27811008    0.63775000    0.17810000
opls_916-186    C    0.57703005    0.11910981    0.65954974    0.20010000
opls_145-187    C    0.52957013    0.04510013    0.65746990    -0.16820000
opls_145-188    C    0.52088012    0.96317957    0.67715052    -0.10820000
opls_700-189    C    0.55859998    0.94817960    0.70134948    0.07240000
opls_145-190    C    0.60556007    0.02135977    0.71487958    -0.12080000
opls_145-191    C    0.61462008    0.10399997    0.69609948    -0.17470000
opls_145-192    C    0.67198003    0.27859969    0.53990052    -0.16910000
opls_145-193    C    0.71975990    0.34826969    0.54196990    -0.12020000
opls_700-194    C    0.73345014    0.42338003    0.63543063    0.06670000
opls_145-195    C    0.69647985    0.42308960    0.73189005    -0.12130000
opls_145-196    C    0.64892983    0.35243974    0.73581937    -0.16620000
opls_142-197    C    0.39071996    0.39521003    0.44596990    0.08750000
opls_142-198    C    0.78348994    0.49523978    0.62901047    0.08350000
opls_145-199    C    0.26009006    0.73218011    0.32209031    0.23140000
opls_145-200    C    0.45101995    0.54316963    0.52756021    0.23110000
opls_145-201    C    0.84078996    0.64366972    0.70348953    0.21390000
opls_145-202    C    0.50139985    0.60305962    0.53517016    -0.15370000
opls_145-203    C    0.51972013    0.68653961    0.58979058    -0.15430000
opls_145-204    C    0.48819014    0.71365970    0.64017016    0.21640000
opls_145-205    C    0.43777003    0.65342982    0.63473037    -0.15850000
opls_145-206    C    0.41942990    0.56987979    0.58001963    -0.16010000
opls_145-207    C    0.30762020    0.78664004    0.38575000    -0.15470000
opls_145-208    C    0.33010995    0.87497952    0.37835995    -0.15570000
opls_145-209    C    0.30570999    0.91254979    0.30679974    0.23440000
opls_145-210    C    0.25851031    0.85810014    0.24040052    -0.15430000
opls_145-211    C    0.23601004    0.76974010    0.24785995    -0.15550000
opls_145-212    C    0.88388002    0.64888967    0.64951047    -0.16360000
opls_145-213    C    0.92759007    0.72723003    0.63957984    -0.15570000
opls_145-214    C    0.93038001    0.80410991    0.68160995    0.21410000
opls_145-215    C    0.88769995    0.79867985    0.74115969    -0.16250000
opls_145-216    C    0.84406991    0.72027973    0.75229974    -0.15890000
opls_142-217    C    0.36375004    0.06077026    0.38501963    0.08490000
opls_142-218    C    0.54935002    0.86208000    0.71198037    0.08900000
opls_142-219    C    0.97703999    0.95097977    0.59882984    0.08510000
opls_239-220    N    0.16188994    0.24147983    0.87043979    -0.13960000
opls_239-221    N    0.58594016    0.20476028    0.13276047    -0.13830000
opls_750-222    N    0.23881011    0.64341014    0.83575000    -0.26540000
opls_750-223    N    0.43469005    0.45996979    0.96956021    -0.26550000
opls_750-224    N    0.79527985    0.56611968    0.20823037    -0.27860000
opls_750-225    N    0.32607013    0.00124009    0.80142016    -0.26520000
opls_750-226    N    0.50504023    0.79862009    0.18693063    -0.27100000
opls_750-227    N    0.97453990    0.88283964    0.15945026    -0.27870000
opls_239-228    N    0.16188994    0.24147983    0.37043979    -0.13960000
opls_239-229    N    0.58594016    0.20476028    0.63276047    -0.13830000
opls_750-230    N    0.23881011    0.64341014    0.33575000    -0.26540000
opls_750-231    N    0.43469005    0.45996979    0.46956021    -0.26560000
opls_750-232    N    0.79527985    0.56611968    0.70823037    -0.27850000
opls_750-233    N    0.32607013    0.00124009    0.30142016    -0.26510000
opls_750-234    N    0.50504023    0.79862009    0.68693063    -0.27110000
opls_750-235    N    0.97453990    0.88283964    0.65945026    -0.27870000
