#======================================================================
# Crystal Data Generated By AuToFF
#----------------------------------------------------------------------

data_AuToFF_phase_1

_cell_length_a                         40.6130
_cell_length_b                         40.6130
_cell_length_c                         3.5218
_cell_angle_alpha                      90.00
_cell_angle_beta                       90.00
_cell_angle_gamma                      90.00
_symmetry_space_group_name_H-M_alt     'P 1'
_symmetry_space_group_IT_number        1

loop_
_space_group_symop_operation_xyz
   'x, y, z'

loop_
   _atom_site_label
   _atom_site_type_symbol
   _atom_site_fract_x
   _atom_site_fract_y
   _atom_site_fract_z
   _atom_site_charge
opls_166-0    C    0.48270997    0.66086992    0.50000000    0.16180000
opls_145-1    C    0.53540000    0.63138010    0.50000000    -0.23010000
opls_700-2    C    0.51721001    0.60177012    0.50000000    0.00980000
opls_543-3    C    0.52711989    0.56897003    0.50000000    0.36110000
opls_166-4    C    0.51729988    0.33913008    0.50000000    0.16190000
opls_145-5    C    0.46460000    0.36861990    0.50000000    -0.23010000
opls_700-6    C    0.48278999    0.39823997    0.50000000    0.00980000
opls_543-7    C    0.47288011    0.43102997    0.50000000    0.36070000
opls_166-8    C    0.33913008    0.48270997    0.50000000    0.16180000
opls_145-9    C    0.36861990    0.53540000    0.50000000    -0.23010000
opls_700-10    C    0.39823997    0.51721001    0.50000000    0.00980000
opls_543-11    C    0.43102997    0.52711989    0.50000000    0.36070000
opls_166-12    C    0.66086992    0.51729988    0.50000000    0.16180000
opls_145-13    C    0.63138010    0.46460000    0.50000000    -0.23010000
opls_700-14    C    0.60177012    0.48278999    0.50000000    0.00980000
opls_543-15    C    0.56897003    0.47288011    0.50000000    0.36120000
opls_166-16    C    0.51729988    0.66086992    0.50000000    0.16180000
opls_145-17    C    0.46460000    0.63138010    0.50000000    -0.23010000
opls_700-18    C    0.48278999    0.60177012    0.50000000    0.00980000
opls_543-19    C    0.47288011    0.56897003    0.50000000    0.36120000
opls_166-20    C    0.48270997    0.33913008    0.50000000    0.16180000
opls_145-21    C    0.53540000    0.36861990    0.50000000    -0.23010000
opls_700-22    C    0.51721001    0.39823997    0.50000000    0.00980000
opls_543-23    C    0.52711989    0.43102997    0.50000000    0.36070000
opls_166-24    C    0.66086992    0.48270997    0.50000000    0.16180000
opls_145-25    C    0.63138010    0.53540000    0.50000000    -0.23010000
opls_700-26    C    0.60177012    0.51721001    0.50000000    0.00980000
opls_543-27    C    0.56897003    0.52711989    0.50000000    0.36110000
opls_166-28    C    0.33913008    0.51729988    0.50000000    0.16180000
opls_145-29    C    0.36861990    0.46460000    0.50000000    -0.23010000
opls_700-30    C    0.39823997    0.48278999    0.50000000    0.00980000
opls_543-31    C    0.43102997    0.47288011    0.50000000    0.36070000
opls_700-32    C    0.98239997    0.46959003    0.50000000    0.02590000
opls_145-33    C    0.03649004    0.55978997    0.50000000    -0.20360000
opls_523-34    C    0.07089011    0.55941989    0.50000000    -0.20270000
opls_700-35    C    0.08879989    0.52959003    0.50000000    -0.07520000
opls_234-36    C    0.12391993    0.47156994    0.50000000    0.41780000
opls_522-37    C    0.80158004    0.52900992    0.50000000    -0.17810000
opls_523-38    C    0.76685002    0.52947997    0.50000000    -0.12300000
opls_700-39    C    0.01760003    0.53040997    0.50000000    0.02590000
opls_145-40    C    0.96350996    0.44021003    0.50000000    -0.20360000
opls_523-41    C    0.92910989    0.44058011    0.50000000    -0.20270000
opls_700-42    C    0.91120011    0.47040997    0.50000000    -0.07520000
opls_234-43    C    0.87608007    0.52843006    0.50000000    0.41780000
opls_522-44    C    0.19841996    0.47099008    0.50000000    -0.17710000
opls_523-45    C    0.23316007    0.47052003    0.50000000    -0.12300000
opls_700-46    C    0.53040997    0.98239997    0.50000000    0.02590000
opls_145-47    C    0.44021003    0.03649004    0.50000000    -0.20360000
opls_523-48    C    0.44058011    0.07089011    0.50000000    -0.20270000
opls_700-49    C    0.47040997    0.08879989    0.50000000    -0.07520000
opls_234-50    C    0.52843006    0.12391993    0.50000000    0.41780000
opls_522-51    C    0.47099008    0.80158004    0.50000000    -0.17810000
opls_523-52    C    0.47052003    0.76685002    0.50000000    -0.12300000
opls_700-53    C    0.46959003    0.01760003    0.50000000    0.02590000
opls_145-54    C    0.55978997    0.96350996    0.50000000    -0.20360000
opls_523-55    C    0.55941989    0.92910989    0.50000000    -0.20270000
opls_700-56    C    0.52959003    0.91120011    0.50000000    -0.07520000
opls_234-57    C    0.47156994    0.87608007    0.50000000    0.41780000
opls_522-58    C    0.52900992    0.19841996    0.50000000    -0.17710000
opls_523-59    C    0.52947997    0.23316007    0.50000000    -0.12300000
opls_700-60    C    0.01760003    0.46959003    0.50000000    0.02590000
opls_145-61    C    0.96350996    0.55978997    0.50000000    -0.20360000
opls_523-62    C    0.92910989    0.55941989    0.50000000    -0.20270000
opls_700-63    C    0.91120011    0.52959003    0.50000000    -0.07520000
opls_234-64    C    0.87608007    0.47156994    0.50000000    0.41780000
opls_522-65    C    0.19841996    0.52900992    0.50000000    -0.17710000
opls_523-66    C    0.23316007    0.52947997    0.50000000    -0.12300000
opls_700-67    C    0.98239997    0.53040997    0.50000000    0.02590000
opls_145-68    C    0.03649004    0.44021003    0.50000000    -0.20360000
opls_523-69    C    0.07089011    0.44058011    0.50000000    -0.20270000
opls_700-70    C    0.08879989    0.47040997    0.50000000    -0.07520000
opls_234-71    C    0.12391993    0.52843006    0.50000000    0.41780000
opls_522-72    C    0.80158004    0.47099008    0.50000000    -0.17810000
opls_523-73    C    0.76685002    0.47052003    0.50000000    -0.12300000
opls_700-74    C    0.46959003    0.98239997    0.50000000    0.02590000
opls_145-75    C    0.55978997    0.03649004    0.50000000    -0.20360000
opls_523-76    C    0.55941989    0.07089011    0.50000000    -0.20270000
opls_700-77    C    0.52959003    0.08879989    0.50000000    -0.07520000
opls_234-78    C    0.47156994    0.12391993    0.50000000    0.41780000
opls_522-79    C    0.52900992    0.80158004    0.50000000    -0.17810000
opls_523-80    C    0.52947997    0.76685002    0.50000000    -0.12300000
opls_700-81    C    0.53040997    0.01760003    0.50000000    0.02590000
opls_145-82    C    0.44021003    0.96350996    0.50000000    -0.20360000
opls_523-83    C    0.44058011    0.92910989    0.50000000    -0.20270000
opls_700-84    C    0.47040997    0.91120011    0.50000000    -0.07520000
opls_234-85    C    0.52843006    0.87608007    0.50000000    0.41780000
opls_522-86    C    0.47099008    0.19841996    0.50000000    -0.17700000
opls_523-87    C    0.47052003    0.23316007    0.50000000    -0.12300000
opls_700-88    C    0.96479009    0.50000000    0.50000000    -0.00070000
opls_700-89    C    0.07060990    0.50000000    0.50000000    0.02540000
opls_521-90    C    0.17810012    0.50000000    0.50000000    0.20220000
opls_145-91    C    0.74890011    0.50000000    0.50000000    -0.26540000
opls_700-92    C    0.03520991    0.50000000    0.50000000    -0.00070000
opls_700-93    C    0.92939010    0.50000000    0.50000000    0.02540000
opls_521-94    C    0.82189988    0.50000000    0.50000000    0.20220000
opls_145-95    C    0.25109989    0.50000000    0.50000000    -0.26550000
opls_700-96    C    0.50000000    0.96479009    0.50000000    -0.00070000
opls_700-97    C    0.50000000    0.07060990    0.50000000    0.02540000
opls_521-98    C    0.50000000    0.17810012    0.50000000    0.20220000
opls_145-99    C    0.50000000    0.74890011    0.50000000    -0.26540000
opls_700-100    C    0.50000000    0.03520991    0.50000000    -0.00070000
opls_700-101    C    0.50000000    0.92939010    0.50000000    0.02550000
opls_521-102    C    0.50000000    0.82189988    0.50000000    0.20220000
opls_145-103    C    0.50000000    0.25109989    0.50000000    -0.26550000
opls_167-104    O    0.52910004    0.69184990    0.50000000    -0.36570000
opls_167-105    O    0.47089011    0.30815010    0.50000000    -0.36580000
opls_167-106    O    0.30815010    0.52910004    0.50000000    -0.36580000
opls_167-107    O    0.69184990    0.47089011    0.50000000    -0.36580000
opls_167-108    O    0.47089011    0.69184990    0.50000000    -0.36580000
opls_167-109    O    0.52910004    0.30815010    0.50000000    -0.36580000
opls_167-110    O    0.69184990    0.52910004    0.50000000    -0.36580000
opls_167-111    O    0.30815010    0.47089011    0.50000000    -0.36580000
opls_236-112    O    0.13629995    0.44342994    0.50000000    -0.53760000
opls_236-113    O    0.86370990    0.55657006    0.50000000    -0.53880000
opls_236-114    O    0.55657006    0.13629995    0.50000000    -0.53750000
opls_236-115    O    0.44342994    0.86370990    0.50000000    -0.53880000
opls_236-116    O    0.86370990    0.44342994    0.50000000    -0.53880000
opls_236-117    O    0.13629995    0.55657006    0.50000000    -0.53760000
opls_236-118    O    0.44342994    0.13629995    0.50000000    -0.53760000
opls_236-119    O    0.55657006    0.86370990    0.50000000    -0.53880000
opls_146-120    H    0.56052988    0.63174008    0.50000000    0.23130000
opls_146-121    H    0.43947012    0.36825992    0.50000000    0.23130000
opls_146-122    H    0.36825992    0.56052988    0.50000000    0.23130000
opls_146-123    H    0.63174008    0.43947012    0.50000000    0.23130000
opls_146-124    H    0.43947012    0.63174008    0.50000000    0.23130000
opls_146-125    H    0.56052988    0.36825992    0.50000000    0.23130000
opls_146-126    H    0.63174008    0.56052988    0.50000000    0.23140000
opls_146-127    H    0.36825992    0.43947012    0.50000000    0.23130000
opls_146-128    H    0.02603994    0.58251988    0.50000000    0.23150000
opls_526-129    H    0.08298008    0.58156994    0.50000000    0.23130000
opls_525-130    H    0.81099008    0.55192992    0.50000000    0.23050000
opls_526-131    H    0.75461010    0.55164012    0.50000000    0.23130000
opls_146-132    H    0.97396006    0.41748012    0.50000000    0.23150000
opls_526-133    H    0.91701992    0.41843006    0.50000000    0.23130000
opls_525-134    H    0.18900992    0.44807008    0.50000000    0.23050000
opls_526-135    H    0.24538990    0.44835988    0.50000000    0.23130000
opls_146-136    H    0.41748012    0.02603994    0.50000000    0.23150000
opls_526-137    H    0.41843006    0.08298008    0.50000000    0.23130000
opls_525-138    H    0.44807008    0.81099008    0.50000000    0.23060000
opls_526-139    H    0.44835988    0.75461010    0.50000000    0.23130000
opls_146-140    H    0.58251988    0.97396006    0.50000000    0.23150000
opls_526-141    H    0.58156994    0.91701992    0.50000000    0.23130000
opls_525-142    H    0.55192992    0.18900992    0.50000000    0.23050000
opls_526-143    H    0.55164012    0.24538990    0.50000000    0.23130000
opls_146-144    H    0.97396006    0.58251988    0.50000000    0.23150000
opls_526-145    H    0.91701992    0.58156994    0.50000000    0.23130000
opls_525-146    H    0.18900992    0.55192992    0.50000000    0.23050000
opls_526-147    H    0.24538990    0.55164012    0.50000000    0.23130000
opls_146-148    H    0.02603994    0.41748012    0.50000000    0.23150000
opls_526-149    H    0.08298008    0.41843006    0.50000000    0.23130000
opls_525-150    H    0.81099008    0.44807008    0.50000000    0.23050000
opls_526-151    H    0.75461010    0.44835988    0.50000000    0.23130000
opls_146-152    H    0.58251988    0.02603994    0.50000000    0.23160000
opls_526-153    H    0.58156994    0.08298008    0.50000000    0.23130000
opls_525-154    H    0.55192992    0.81099008    0.50000000    0.23050000
opls_526-155    H    0.55164012    0.75461010    0.50000000    0.23130000
opls_146-156    H    0.41748012    0.97396006    0.50000000    0.23150000
opls_526-157    H    0.41843006    0.91701992    0.50000000    0.23130000
opls_525-158    H    0.44807008    0.18900992    0.50000000    0.23050000
opls_526-159    H    0.44835988    0.24538990    0.50000000    0.23130000
opls_750-160    N    0.55866988    0.55866988    0.50000000    -0.44630000
opls_750-161    N    0.44133012    0.44133012    0.50000000    -0.44630000
opls_750-162    N    0.44133012    0.55866988    0.50000000    -0.44630000
opls_750-163    N    0.55866988    0.44133012    0.50000000    -0.44630000
opls_251-164    N    0.14311009    0.50000000    0.50000000    -0.20260000
opls_251-165    N    0.85688991    0.50000000    0.50000000    -0.20260000
opls_251-166    N    0.50000000    0.14311009    0.50000000    -0.20250000
opls_251-167    N    0.50000000    0.85688991    0.50000000    -0.20260000
opls_542-168    N    0.50000000    0.54993007    0.50000000    -0.38730000
opls_542-169    N    0.50000000    0.45006993    0.50000000    -0.38730000
opls_542-170    N    0.45006993    0.50000000    0.50000000    -0.38720000
opls_542-171    N    0.54993007    0.50000000    0.50000000    -0.38730000
MOF2_B_2-172    B    0.50000000    0.71218994    0.50000000    0.54100000
MOF2_B_2-173    B    0.50000000    0.28781006    0.50000000    0.54110000
MOF2_B_2-174    B    0.28781006    0.50000000    0.50000000    0.54100000
MOF2_B_2-175    B    0.71218994    0.50000000    0.50000000    0.54100000
F2_Ni4+2-176    Ni    0.50000000    0.50000000    0.50000000    0.40650000
