#======================================================================
# Crystal Data Generated By AuToFF
#----------------------------------------------------------------------

data_AuToFF_phase_1

_cell_length_a                         34.0624
_cell_length_b                         32.5429
_cell_length_c                         3.6448
_cell_angle_alpha                      90.00
_cell_angle_beta                       90.00
_cell_angle_gamma                      90.00
_symmetry_space_group_name_H-M_alt     'P 1'
_symmetry_space_group_IT_number        1

loop_
_space_group_symop_operation_xyz
   'x, y, z'

loop_
   _atom_site_label
   _atom_site_type_symbol
   _atom_site_fract_x
   _atom_site_fract_y
   _atom_site_fract_z
   _atom_site_charge
opls_147-0    C    0.46350991    0.95848987    0.21110075    0.00830000
opls_145-1    C    0.42815010    0.02022991    0.21806958    -0.18240000
opls_145-2    C    0.46342008    0.08290011    0.20803885    0.02850000
opls_145-3    C    0.42705006    0.10766988    0.16643986    0.03630000
opls_145-4    C    0.42309996    0.14295008    0.33346137    -0.21460000
opls_145-5    C    0.39023997    0.16715996    0.28638060    -0.21340000
opls_145-6    C    0.35993001    0.15632995    0.07617976    -0.00210000
opls_145-7    C    0.36406008    0.12149009    0.90544886    -0.21460000
opls_145-8    C    0.39794994    0.09841010    0.94050977    -0.21460000
opls_634-9    C    0.32464007    0.18156003    0.03199901    0.05020000
opls_507-10    C    0.78658991    0.26492015    0.91575944    0.16210000
opls_145-11    C    0.77646995    0.22731010    0.81504061    -0.23270000
opls_637-12    C    0.26078990    0.78703004    0.90437884    -0.02980000
opls_147-13    C    0.53649009    0.04151013    0.21110075    0.00830000
opls_145-14    C    0.57184990    0.97977009    0.21806958    -0.18240000
opls_145-15    C    0.53657992    0.91709989    0.20803885    0.02850000
opls_145-16    C    0.57294994    0.89233012    0.16643986    0.03630000
opls_145-17    C    0.57690004    0.85704992    0.33346137    -0.21460000
opls_145-18    C    0.60976003    0.83284004    0.28638060    -0.21340000
opls_145-19    C    0.64006999    0.84367005    0.07617976    -0.00210000
opls_145-20    C    0.63593992    0.87850991    0.90544886    -0.21460000
opls_145-21    C    0.60205006    0.90158990    0.94050977    -0.21460000
opls_634-22    C    0.67535993    0.81843997    0.03199901    0.05020000
opls_507-23    C    0.21341009    0.73507985    0.91575944    0.16210000
opls_145-24    C    0.22353005    0.77268990    0.81504061    -0.23270000
opls_637-25    C    0.73921010    0.21296996    0.90437884    -0.02980000
opls_147-26    C    0.03649009    0.45848987    0.78889925    0.00830000
opls_145-27    C    0.07184990    0.52022991    0.78193042    -0.18240000
opls_145-28    C    0.03657992    0.58290011    0.79196115    0.02850000
opls_145-29    C    0.07294994    0.60766988    0.83356014    0.03630000
opls_145-30    C    0.07690004    0.64295008    0.66653863    -0.21460000
opls_145-31    C    0.10976003    0.66715996    0.71361940    -0.21340000
opls_145-32    C    0.14006999    0.65632995    0.92382024    -0.00210000
opls_145-33    C    0.13593992    0.62149009    0.09455114    -0.21460000
opls_145-34    C    0.10205006    0.59841010    0.05949023    -0.21460000
opls_634-35    C    0.17535993    0.68156003    0.96800099    0.05020000
opls_507-36    C    0.71341009    0.76492015    0.08424056    0.16210000
opls_145-37    C    0.72353005    0.72731010    0.18495939    -0.23270000
opls_637-38    C    0.23921010    0.28703004    0.09562116    -0.02980000
opls_147-39    C    0.96350991    0.54151013    0.78889925    0.00830000
opls_145-40    C    0.92815010    0.47977009    0.78193042    -0.18240000
opls_145-41    C    0.96342008    0.41709989    0.79196115    0.02850000
opls_145-42    C    0.92705006    0.39233012    0.83356014    0.03630000
opls_145-43    C    0.92309996    0.35704992    0.66653863    -0.21460000
opls_145-44    C    0.89023997    0.33284004    0.71361940    -0.21340000
opls_145-45    C    0.85993001    0.34367005    0.92382024    -0.00210000
opls_145-46    C    0.86406008    0.37850991    0.09455114    -0.21460000
opls_145-47    C    0.89794994    0.40158990    0.05949023    -0.21460000
opls_634-48    C    0.82464007    0.31843997    0.96800099    0.05020000
opls_507-49    C    0.28658991    0.23507985    0.08424056    0.16210000
opls_145-50    C    0.27646995    0.27268990    0.18495939    -0.23270000
opls_637-51    C    0.76078990    0.71296996    0.09562116    -0.02980000
opls_147-52    C    0.03649009    0.54151013    0.78889925    0.00830000
opls_145-53    C    0.07184990    0.47977009    0.78193042    -0.18240000
opls_145-54    C    0.03657992    0.41709989    0.79196115    0.02850000
opls_145-55    C    0.07294994    0.39233012    0.83356014    0.03630000
opls_145-56    C    0.07690004    0.35704992    0.66653863    -0.21460000
opls_145-57    C    0.10976003    0.33284004    0.71361940    -0.21340000
opls_145-58    C    0.14006999    0.34367005    0.92382024    -0.00210000
opls_145-59    C    0.13593992    0.37850991    0.09455114    -0.21460000
opls_145-60    C    0.10205006    0.40158990    0.05949023    -0.21460000
opls_634-61    C    0.17535993    0.31843997    0.96800099    0.05020000
opls_507-62    C    0.71341009    0.23507985    0.08424056    0.16210000
opls_145-63    C    0.72353005    0.27268990    0.18495939    -0.23270000
opls_637-64    C    0.23921010    0.71296996    0.09562116    -0.02980000
opls_147-65    C    0.96350991    0.45848987    0.78889925    0.00830000
opls_145-66    C    0.92815010    0.52022991    0.78193042    -0.18240000
opls_145-67    C    0.96342008    0.58290011    0.79196115    0.02850000
opls_145-68    C    0.92705006    0.60766988    0.83356014    0.03630000
opls_145-69    C    0.92309996    0.64295008    0.66653863    -0.21460000
opls_145-70    C    0.89023997    0.66715996    0.71361940    -0.21340000
opls_145-71    C    0.85993001    0.65632995    0.92382024    -0.00210000
opls_145-72    C    0.86406008    0.62149009    0.09455114    -0.21460000
opls_145-73    C    0.89794994    0.59841010    0.05949023    -0.21460000
opls_634-74    C    0.82464007    0.68156003    0.96800099    0.05020000
opls_507-75    C    0.28658991    0.76492015    0.08424056    0.16210000
opls_145-76    C    0.27646995    0.72731010    0.18495939    -0.23270000
opls_637-77    C    0.76078990    0.28703004    0.09562116    -0.02980000
opls_147-78    C    0.46350991    0.04151013    0.21110075    0.00830000
opls_145-79    C    0.42815010    0.97977009    0.21806958    -0.18240000
opls_145-80    C    0.46342008    0.91709989    0.20803885    0.02850000
opls_145-81    C    0.42705006    0.89233012    0.16643986    0.03630000
opls_145-82    C    0.42309996    0.85704992    0.33346137    -0.21460000
opls_145-83    C    0.39023997    0.83284004    0.28638060    -0.21340000
opls_145-84    C    0.35993001    0.84367005    0.07617976    -0.00210000
opls_145-85    C    0.36406008    0.87850991    0.90544886    -0.21460000
opls_145-86    C    0.39794994    0.90158990    0.94050977    -0.21460000
opls_634-87    C    0.32464007    0.81843997    0.03199901    0.05020000
opls_507-88    C    0.78658991    0.73507985    0.91575944    0.16210000
opls_145-89    C    0.77646995    0.77268990    0.81504061    -0.23260000
opls_637-90    C    0.26078990    0.21296996    0.90437884    -0.02980000
opls_147-91    C    0.53649009    0.95848987    0.21110075    0.00830000
opls_145-92    C    0.57184990    0.02022991    0.21806958    -0.18240000
opls_145-93    C    0.53657992    0.08290011    0.20803885    0.02860000
opls_145-94    C    0.57294994    0.10766988    0.16643986    0.03630000
opls_145-95    C    0.57690004    0.14295008    0.33346137    -0.21460000
opls_145-96    C    0.60976003    0.16715996    0.28638060    -0.21340000
opls_145-97    C    0.64006999    0.15632995    0.07617976    -0.00210000
opls_145-98    C    0.63593992    0.12149009    0.90544886    -0.21460000
opls_145-99    C    0.60205006    0.09841010    0.94050977    -0.21460000
opls_634-100    C    0.67535993    0.18156003    0.03199901    0.05020000
opls_507-101    C    0.21341009    0.26492015    0.91575944    0.16210000
opls_145-102    C    0.22353005    0.22731010    0.81504061    -0.23270000
opls_637-103    C    0.73921010    0.78703004    0.90437884    -0.02980000
opls_145-104    C    0.50000000    0.10217989    0.20679050    -0.08110000
opls_145-105    C    0.50000000    0.97918993    0.21043130    0.00700000
opls_145-106    C    0.50000000    0.89782011    0.20679050    -0.08110000
opls_145-107    C    0.50000000    0.02081007    0.21043130    0.00700000
opls_145-108    C    0.00000000    0.60217989    0.79320950    -0.08110000
opls_145-109    C    0.00000000    0.47918993    0.78956870    0.00700000
opls_145-110    C    0.00000000    0.39782011    0.79320950    -0.08110000
opls_145-111    C    0.00000000    0.52081007    0.78956870    0.00700000
opls_635-112    N    0.32295992    0.21626008    0.15392888    -0.27530000
opls_635-113    N    0.67704008    0.78373992    0.15392888    -0.27530000
opls_635-114    N    0.17704008    0.71626008    0.84607112    -0.27530000
opls_635-115    N    0.82295992    0.28373992    0.84607112    -0.27520000
opls_635-116    N    0.17704008    0.28373992    0.84607112    -0.27520000
opls_635-117    N    0.82295992    0.71626008    0.84607112    -0.27530000
opls_635-118    N    0.32295992    0.78373992    0.15392888    -0.27530000
opls_635-119    N    0.67704008    0.21626008    0.15392888    -0.27530000
opls_633-120    S    0.78089007    0.66607002    0.19116001    0.09970000
opls_633-121    S    0.21910993    0.33392998    0.19116001    0.09970000
opls_633-122    S    0.71910993    0.16607002    0.80883999    0.09970000
opls_633-123    S    0.28089007    0.83392998    0.80883999    0.09980000
opls_633-124    S    0.71910993    0.83392998    0.80883999    0.09970000
opls_633-125    S    0.28089007    0.16607002    0.80883999    0.09970000
opls_633-126    S    0.78089007    0.33392998    0.19116001    0.09970000
opls_633-127    S    0.21910993    0.66607002    0.19116001    0.09970000
opls_146-128    H    0.79657012    0.21007009    0.67292032    0.22780000
opls_146-129    H    0.39840998    0.03610987    0.22391901    0.03840000
opls_146-130    H    0.44508989    0.15155011    0.50645029    0.22780000
opls_146-131    H    0.38812004    0.19386994    0.42168020    0.22720000
opls_146-132    H    0.34203990    0.11272997    0.73368086    0.22780000
opls_146-133    H    0.40150988    0.07338006    0.78734910    0.22820000
opls_146-134    H    0.20342988    0.78992991    0.67292032    0.22780000
opls_146-135    H    0.60159002    0.96389013    0.22391901    0.03840000
opls_146-136    H    0.55491011    0.84844989    0.50645029    0.22780000
opls_146-137    H    0.61187996    0.80613006    0.42168020    0.22710000
opls_146-138    H    0.65796010    0.88727003    0.73368086    0.22780000
opls_146-139    H    0.59849012    0.92661994    0.78734910    0.22820000
opls_146-140    H    0.70342988    0.71007009    0.32707968    0.22790000
opls_146-141    H    0.10159002    0.53610987    0.77608099    0.03840000
opls_146-142    H    0.05491011    0.65155011    0.49354971    0.22780000
opls_146-143    H    0.11187996    0.69386994    0.57831980    0.22710000
opls_146-144    H    0.15796010    0.61272997    0.26631914    0.22780000
opls_146-145    H    0.09849012    0.57338006    0.21265090    0.22820000
opls_146-146    H    0.29657012    0.28992991    0.32707968    0.22780000
opls_146-147    H    0.89840998    0.46389013    0.77608099    0.03840000
opls_146-148    H    0.94508989    0.34844989    0.49354971    0.22780000
opls_146-149    H    0.88812004    0.30613006    0.57831980    0.22710000
opls_146-150    H    0.84203990    0.38727003    0.26631914    0.22780000
opls_146-151    H    0.90150988    0.42661994    0.21265090    0.22820000
opls_146-152    H    0.70342988    0.28992991    0.32707968    0.22780000
opls_146-153    H    0.10159002    0.46389013    0.77608099    0.03840000
opls_146-154    H    0.05491011    0.34844989    0.49354971    0.22780000
opls_146-155    H    0.11187996    0.30613006    0.57831980    0.22710000
opls_146-156    H    0.15796010    0.38727003    0.26631914    0.22780000
opls_146-157    H    0.09849012    0.42661994    0.21265090    0.22820000
opls_146-158    H    0.29657012    0.71007009    0.32707968    0.22780000
opls_146-159    H    0.89840998    0.53610987    0.77608099    0.03840000
opls_146-160    H    0.94508989    0.65155011    0.49354971    0.22780000
opls_146-161    H    0.88812004    0.69386994    0.57831980    0.22710000
opls_146-162    H    0.84203990    0.61272997    0.26631914    0.22780000
opls_146-163    H    0.90150988    0.57338006    0.21265090    0.22830000
opls_146-164    H    0.79657012    0.78992991    0.67292032    0.22780000
opls_146-165    H    0.39840998    0.96389013    0.22391901    0.03840000
opls_146-166    H    0.44508989    0.84844989    0.50645029    0.22780000
opls_146-167    H    0.38812004    0.80613006    0.42168020    0.22710000
opls_146-168    H    0.34203990    0.88727003    0.73368086    0.22780000
opls_146-169    H    0.40150988    0.92661994    0.78734910    0.22820000
opls_146-170    H    0.20342988    0.21007009    0.67292032    0.22780000
opls_146-171    H    0.60159002    0.03610987    0.22391901    0.03840000
opls_146-172    H    0.55491011    0.15155011    0.50645029    0.22780000
opls_146-173    H    0.61187996    0.19386994    0.42168020    0.22710000
opls_146-174    H    0.65796010    0.11272997    0.73368086    0.22780000
opls_146-175    H    0.59849012    0.07338006    0.78734910    0.22820000
opls_146-176    H    0.50000000    0.13542001    0.20465046    0.10850000
opls_146-177    H    0.50000000    0.86457999    0.20465046    0.10850000
opls_146-178    H    0.00000000    0.63542001    0.79534954    0.10850000
opls_146-179    H    0.00000000    0.36457999    0.79534954    0.10850000
