#======================================================================
# Crystal Data Generated By AuToFF
#----------------------------------------------------------------------

data_AuToFF_phase_1

_cell_length_a                         13.1545
_cell_length_b                         13.1545
_cell_length_c                         7.9818
_cell_angle_alpha                      90.00
_cell_angle_beta                       90.00
_cell_angle_gamma                      90.00
_symmetry_space_group_name_H-M_alt     'P 1'
_symmetry_space_group_IT_number        1

loop_
_space_group_symop_operation_xyz
   'x, y, z'

loop_
   _atom_site_label
   _atom_site_type_symbol
   _atom_site_fract_x
   _atom_site_fract_y
   _atom_site_fract_z
   _atom_site_charge
opls_700-0    C    0.05769965    0.92409974    0.88910020    0.03530000
opls_145-1    C    0.10600023    0.95729978    0.74229998    -0.21600000
opls_145-2    C    0.15749971    0.89540005    0.63690020    -0.21470000
opls_916-3    C    0.16189973    0.79029990    0.67540029    0.09680000
opls_145-4    C    0.11680033    0.75449998    0.82040016    -0.21580000
opls_145-5    C    0.06400015    0.82050021    0.92280062    -0.21380000
opls_700-6    C    0.94230035    0.07590026    0.88910020    0.03530000
opls_145-7    C    0.89399977    0.04270022    0.74229998    -0.21600000
opls_145-8    C    0.84250029    0.10459995    0.63690020    -0.21470000
opls_916-9    C    0.83810027    0.20970010    0.67540029    0.09680000
opls_145-10    C    0.88319967    0.24550002    0.82040016    -0.21580000
opls_145-11    C    0.93599985    0.17949979    0.92280062    -0.21380000
opls_700-12    C    0.92409974    0.94230035    0.11089980    0.03530000
opls_145-13    C    0.95729978    0.89399977    0.25770002    -0.21600000
opls_145-14    C    0.89540005    0.84250029    0.36309980    -0.21470000
opls_916-15    C    0.79029990    0.83810027    0.32459971    0.09680000
opls_145-16    C    0.75449998    0.88319967    0.17959984    -0.21580000
opls_145-17    C    0.82050021    0.93599985    0.07719938    -0.21380000
opls_700-18    C    0.07590026    0.05769965    0.11089980    0.03530000
opls_145-19    C    0.04270022    0.10600023    0.25770002    -0.21600000
opls_145-20    C    0.10459995    0.15749971    0.36309980    -0.21470000
opls_916-21    C    0.20970010    0.16189973    0.32459971    0.09680000
opls_145-22    C    0.24550002    0.11680033    0.17959984    -0.21580000
opls_145-23    C    0.17949979    0.06400015    0.07719938    -0.21380000
opls_700-24    C    0.55769965    0.57590026    0.88910020    0.03530000
opls_145-25    C    0.60600023    0.54270022    0.74229998    -0.21600000
opls_145-26    C    0.65749971    0.60459995    0.63690020    -0.21470000
opls_916-27    C    0.66189973    0.70970010    0.67540029    0.09680000
opls_145-28    C    0.61680033    0.74550002    0.82040016    -0.21580000
opls_145-29    C    0.56400015    0.67949979    0.92280062    -0.21380000
opls_700-30    C    0.44230035    0.42409974    0.88910020    0.03530000
opls_145-31    C    0.39399977    0.45729978    0.74229998    -0.21600000
opls_145-32    C    0.34250029    0.39540005    0.63690020    -0.21470000
opls_916-33    C    0.33810027    0.29029990    0.67540029    0.09680000
opls_145-34    C    0.38319967    0.25449998    0.82040016    -0.21580000
opls_145-35    C    0.43599985    0.32050021    0.92280062    -0.21380000
opls_700-36    C    0.42409974    0.55769965    0.11089980    0.03530000
opls_145-37    C    0.45729978    0.60600023    0.25770002    -0.21600000
opls_145-38    C    0.39540005    0.65749971    0.36309980    -0.21470000
opls_916-39    C    0.29029990    0.66189973    0.32459971    0.09680000
opls_145-40    C    0.25449998    0.61680033    0.17959984    -0.21580000
opls_145-41    C    0.32050021    0.56400015    0.07719938    -0.21380000
opls_700-42    C    0.57590026    0.44230035    0.11089980    0.03530000
opls_145-43    C    0.54270022    0.39399977    0.25770002    -0.21600000
opls_145-44    C    0.60459995    0.34250029    0.36309980    -0.21470000
opls_916-45    C    0.70970010    0.33810027    0.32459971    0.09680000
opls_145-46    C    0.74550002    0.38319967    0.17959984    -0.21580000
opls_145-47    C    0.67949979    0.43599985    0.07719938    -0.21380000
opls_701-48    C    0.00000000    0.00000000    0.00000000    0.00880000
opls_701-49    C    0.50000000    0.50000000    0.00000000    0.00880000
opls_146-50    H    0.10239994    0.02750010    0.71519958    0.22640000
opls_146-51    H    0.18990003    0.92160021    0.53970032    0.22640000
opls_146-52    H    0.12220001    0.68470029    0.84950011    0.22640000
opls_146-53    H    0.03080011    0.79439964    0.01940039    0.22640000
opls_146-54    H    0.89760006    0.97249990    0.71519958    0.22640000
opls_146-55    H    0.81009997    0.07839979    0.53970032    0.22640000
opls_146-56    H    0.87779999    0.31529971    0.84950011    0.22640000
opls_146-57    H    0.96919989    0.20560036    0.01940039    0.22640000
opls_146-58    H    0.02750010    0.89760006    0.28480042    0.22640000
opls_146-59    H    0.92160021    0.81009997    0.46029968    0.22640000
opls_146-60    H    0.68470029    0.87779999    0.15049989    0.22640000
opls_146-61    H    0.79439964    0.96919989    0.98059961    0.22640000
opls_146-62    H    0.97249990    0.10239994    0.28480042    0.22640000
opls_146-63    H    0.07839979    0.18990003    0.46029968    0.22640000
opls_146-64    H    0.31529971    0.12220001    0.15049989    0.22640000
opls_146-65    H    0.20560036    0.03080011    0.98059961    0.22640000
opls_146-66    H    0.60239994    0.47249990    0.71519958    0.22640000
opls_146-67    H    0.68990003    0.57839979    0.53970032    0.22640000
opls_146-68    H    0.62220001    0.81529971    0.84950011    0.22640000
opls_146-69    H    0.53080011    0.70560036    0.01940039    0.22640000
opls_146-70    H    0.39760006    0.52750010    0.71519958    0.22640000
opls_146-71    H    0.31009997    0.42160021    0.53970032    0.22640000
opls_146-72    H    0.37779999    0.18470029    0.84950011    0.22640000
opls_146-73    H    0.46919989    0.29439964    0.01940039    0.22640000
opls_146-74    H    0.52750010    0.60239994    0.28480042    0.22640000
opls_146-75    H    0.42160021    0.68990003    0.46029968    0.22640000
opls_146-76    H    0.18470029    0.62220001    0.15049989    0.22640000
opls_146-77    H    0.29439964    0.53080011    0.98059961    0.22640000
opls_146-78    H    0.47249990    0.39760006    0.28480042    0.22640000
opls_146-79    H    0.57839979    0.31009997    0.46029968    0.22640000
opls_146-80    H    0.81529971    0.37779999    0.15049989    0.22640000
opls_146-81    H    0.70560036    0.46919989    0.98059961    0.22640000
opls_239-82    N    0.22360029    0.72209966    0.58059961    0.24390000
opls_239-83    N    0.77639971    0.27790034    0.58059961    0.24390000
opls_239-84    N    0.72209966    0.77639971    0.41940039    0.24390000
opls_239-85    N    0.27790034    0.22360029    0.41940039    0.24390000
opls_239-86    N    0.72360029    0.77790034    0.58059961    0.24390000
opls_239-87    N    0.27639971    0.22209966    0.58059961    0.24390000
opls_239-88    N    0.22209966    0.72360029    0.41940039    0.24390000
opls_239-89    N    0.77790034    0.27639971    0.41940039    0.24390000
opls_272-90    O    0.27520012    0.65489984    0.65749956    -0.42350000
opls_272-91    O    0.72479988    0.34510016    0.65749956    -0.42350000
opls_272-92    O    0.65489984    0.72479988    0.34250044    -0.42350000
opls_272-93    O    0.34510016    0.27520012    0.34250044    -0.42350000
opls_272-94    O    0.77520012    0.84510016    0.65749956    -0.42350000
opls_272-95    O    0.22479988    0.15489984    0.65749956    -0.42350000
opls_272-96    O    0.15489984    0.77520012    0.34250044    -0.42350000
opls_272-97    O    0.84510016    0.22479988    0.34250044    -0.42350000
