#======================================================================
# Crystal Data Generated By AuToFF
#----------------------------------------------------------------------

data_AuToFF_phase_1

_cell_length_a                         28.0121
_cell_length_b                         28.0121
_cell_length_c                         3.4711
_cell_angle_alpha                      90.00
_cell_angle_beta                       90.00
_cell_angle_gamma                      120.00
_symmetry_space_group_name_H-M_alt     'P 1'
_symmetry_space_group_IT_number        1

loop_
_space_group_symop_operation_xyz
   'x, y, z'

loop_
   _atom_site_label
   _atom_site_type_symbol
   _atom_site_fract_x
   _atom_site_fract_y
   _atom_site_fract_z
   _atom_site_charge
opls_530-0    N    0.25610020    0.67992006    0.50000000    -0.37600000
opls_530-1    N    0.24338988    0.58868000    0.50000000    -0.37490000
opls_750-2    N    0.52129009    0.47771999    0.50000000    -0.27040000
opls_520-3    N    0.61001009    0.30329990    0.50000000    -0.39390000
opls_530-4    N    0.32008010    0.57618000    0.50000000    -0.37600000
opls_530-5    N    0.41132006    0.65470982    0.50000000    -0.37490000
opls_750-6    N    0.52228008    0.04356988    0.50000000    -0.27040000
opls_520-7    N    0.69669992    0.30671016    0.50000000    -0.39390000
opls_530-8    N    0.42382006    0.74389994    0.50000000    -0.37600000
opls_530-9    N    0.34529007    0.75661018    0.50000000    -0.37490000
opls_750-10    N    0.95643019    0.47871013    0.50000000    -0.27040000
opls_520-11    N    0.69328999    0.38998994    0.50000000    -0.39390000
opls_239-12    N    0.33332992    0.66666983    0.50000000    -0.20680000
opls_642-13    C    0.22425008    0.62441986    0.50000000    0.36350000
opls_531-14    C    0.29843995    0.60970008    0.50000000    0.50760000
opls_700-15    C    0.43708012    0.83628019    0.50000000    -0.00670000
opls_523-16    C    0.49436996    0.85944007    0.50000000    -0.11680000
opls_145-17    C    0.52858994    0.91599019    0.50000000    -0.11330000
opls_700-18    C    0.50682010    0.95138997    0.50000000    0.06030000
opls_145-19    C    0.44944984    0.92804995    0.50000000    -0.11680000
opls_523-20    C    0.41522991    0.87156991    0.50000000    -0.11590000
opls_142-21    C    0.46824986    0.45673990    0.50000000    0.03120000
opls_145-22    C    0.54607017    0.44452020    0.50000000    0.21130000
opls_145-23    C    0.51847983    0.38666996    0.50000000    -0.15740000
opls_523-24    C    0.54804010    0.35923005    0.50000000    -0.10710000
opls_700-25    C    0.60569998    0.38797008    0.50000000    -0.00760000
opls_523-26    C    0.63304990    0.44553013    0.50000000    -0.12190000
opls_145-27    C    0.60387988    0.47320005    0.50000000    -0.14970000
opls_531-28    C    0.63773010    0.35889986    0.50000000    0.36290000
opls_642-29    C    0.37558016    0.59983000    0.50000000    0.36350000
opls_531-30    C    0.39030006    0.68873981    0.50000000    0.50760000
opls_700-31    C    0.16372011    0.60079994    0.50000000    -0.00670000
opls_523-32    C    0.14056007    0.63493010    0.50000000    -0.11680000
opls_145-33    C    0.08400999    0.61260001    0.50000000    -0.11330000
opls_700-34    C    0.04861004    0.55542992    0.50000000    0.06030000
opls_145-35    C    0.07195010    0.52139993    0.50000000    -0.11690000
opls_523-36    C    0.12842980    0.54365995    0.50000000    -0.11590000
opls_142-37    C    0.54325980    0.01150986    0.50000000    0.03120000
opls_145-38    C    0.55548009    0.10154997    0.50000000    0.21130000
opls_145-39    C    0.61332978    0.13180984    0.50000000    -0.15450000
opls_523-40    C    0.64077001    0.18881010    0.50000000    -0.10710000
opls_700-41    C    0.61202999    0.21772986    0.50000000    -0.00760000
opls_523-42    C    0.55446977    0.18751986    0.50000000    -0.12190000
opls_145-43    C    0.52679985    0.13067996    0.50000000    -0.14970000
opls_531-44    C    0.64109999    0.27883000    0.50000000    0.36290000
opls_642-45    C    0.40017011    0.77575014    0.50000000    0.36350000
opls_531-46    C    0.31125999    0.70156011    0.50000000    0.50760000
opls_700-47    C    0.39919977    0.56291987    0.50000000    -0.00670000
opls_523-48    C    0.36506997    0.50562983    0.50000000    -0.11680000
opls_145-49    C    0.38740006    0.47140980    0.50000000    -0.11330000
opls_700-50    C    0.44457021    0.49318011    0.50000000    0.06030000
opls_145-51    C    0.47860005    0.55055012    0.50000000    -0.11680000
opls_523-52    C    0.45633993    0.58477014    0.50000000    -0.11590000
opls_142-53    C    0.98848978    0.53174982    0.50000000    0.03120000
opls_145-54    C    0.89844974    0.45392983    0.50000000    0.21130000
opls_145-55    C    0.86819003    0.48152020    0.50000000    -0.15450000
opls_523-56    C    0.81118989    0.45195986    0.50000000    -0.10710000
opls_700-57    C    0.78227003    0.39430006    0.50000000    -0.00760000
opls_523-58    C    0.81247997    0.36695001    0.50000000    -0.12180000
opls_145-59    C    0.86931991    0.39611999    0.50000000    -0.14970000
opls_531-60    C    0.72116991    0.36227013    0.50000000    0.36290000
opls_526-61    H    0.51169006    0.83209992    0.50000000    0.11470000
opls_146-62    H    0.57331999    0.93344996    0.50000000    0.11770000
opls_146-63    H    0.43227999    0.95551995    0.50000000    0.11470000
opls_526-64    H    0.37048001    0.85358992    0.50000000    0.11480000
opls_144-65    H    0.43827988    0.41139008    0.50000000    0.04820000
opls_146-66    H    0.47347976    0.36267988    0.50000000    0.11470000
opls_526-67    H    0.52631004    0.31417990    0.50000000    0.10120000
opls_526-68    H    0.67809002    0.46833015    0.50000000    0.11710000
opls_146-69    H    0.62572014    0.51819001    0.50000000    0.11550000
opls_526-70    H    0.16789994    0.67958988    0.50000000    0.11470000
opls_146-71    H    0.06654990    0.63987009    0.50000000    0.11770000
opls_146-72    H    0.04447983    0.47675994    0.50000000    0.11470000
opls_526-73    H    0.14640979    0.51688989    0.50000000    0.11480000
opls_144-74    H    0.58861003    0.02689002    0.50000000    0.04820000
opls_146-75    H    0.63731999    0.11080007    0.50000000    0.11470000
opls_526-76    H    0.68582014    0.21212992    0.50000000    0.10120000
opls_526-77    H    0.53166990    0.20976010    0.50000000    0.11710000
opls_146-78    H    0.48181001    0.10752997    0.50000000    0.11550000
opls_526-79    H    0.32041001    0.48831020    0.50000000    0.11470000
opls_146-80    H    0.36013011    0.42667995    0.50000000    0.11770000
opls_146-81    H    0.52324018    0.56772011    0.50000000    0.11470000
opls_526-82    H    0.48311020    0.62952019    0.50000000    0.11480000
opls_144-83    H    0.97311009    0.56171991    0.50000000    0.04820000
opls_146-84    H    0.88919989    0.52652005    0.50000000    0.11470000
opls_526-85    H    0.78787018    0.47369018    0.50000000    0.10120000
opls_526-86    H    0.79023993    0.32191017    0.50000000    0.11710000
opls_146-87    H    0.89246985    0.37428002    0.50000000    0.11550000
