#======================================================================
# Crystal Data Generated By AuToFF
#----------------------------------------------------------------------

data_AuToFF_phase_1

_cell_length_a                         29.0800
_cell_length_b                         29.0800
_cell_length_c                         3.4810
_cell_angle_alpha                      90.00
_cell_angle_beta                       90.00
_cell_angle_gamma                      120.00
_symmetry_space_group_name_H-M_alt     'P 1'
_symmetry_space_group_IT_number        1

loop_
_space_group_symop_operation_xyz
   'x, y, z'

loop_
   _atom_site_label
   _atom_site_type_symbol
   _atom_site_fract_x
   _atom_site_fract_y
   _atom_site_fract_z
   _atom_site_charge
opls_520-0    N    0.29994008    0.61184990    0.45869865    -0.38520000
opls_750-1    N    0.48993013    0.51677016    0.04176099    -0.17490000
opls_520-2    N    0.38448991    0.68686016    0.38958920    -0.38880000
opls_750-3    N    0.48343004    0.97288002    0.03051997    -0.17680000
opls_750-4    N    0.02622014    0.50891002    0.05449871    -0.17860000
opls_520-5    N    0.70005992    0.38815010    0.54130135    -0.38520000
opls_750-6    N    0.51006987    0.48322984    0.95823901    -0.17490000
opls_520-7    N    0.61551009    0.31313984    0.61041080    -0.38880000
opls_750-8    N    0.51656996    0.02711998    0.96948003    -0.17750000
opls_750-9    N    0.97377986    0.49108998    0.94550129    -0.17860000
opls_700-10    C    0.37680024    0.59872014    0.37958058    0.00180000
opls_523-11    C    0.43103997    0.62080002    0.29374892    -0.11930000
opls_145-12    C    0.45274012    0.58809991    0.23411951    -0.11450000
opls_700-13    C    0.42072002    0.53271995    0.26039931    0.05440000
opls_145-14    C    0.36689995    0.51055987    0.35507038    -0.11510000
opls_523-15    C    0.34505983    0.54325997    0.41324045    -0.12610000
opls_531-16    C    0.35327990    0.63335004    0.41943120    0.34280000
opls_142-17    C    0.55736991    0.50227009    0.81854065    0.02290000
opls_700-18    C    0.39911999    0.77746007    0.34559897    0.03730000
opls_523-19    C    0.37904003    0.80937992    0.20523987    -0.11610000
opls_145-20    C    0.41237007    0.86365004    0.15503016    -0.11940000
opls_700-21    C    0.46669999    0.88730989    0.23675955    0.05430000
opls_145-22    C    0.48734002    0.85573987    0.36875036    -0.11630000
opls_523-23    C    0.45376994    0.80118980    0.42268026    -0.12710000
opls_521-24    C    0.36385982    0.71959997    0.40365987    0.22110000
opls_142-25    C    0.49809975    0.05544984    0.82247055    0.02610000
opls_522-26    C    0.30928003    0.69769004    0.45821028    -0.21090000
opls_700-27    C    0.21811994    0.61714015    0.47449871    0.03250000
opls_523-28    C    0.18747009    0.56468983    0.34114048    -0.12130000
opls_145-29    C    0.13304993    0.54265006    0.27906061    -0.11350000
opls_700-30    C    0.10829005    0.57267982    0.34902040    0.05430000
opls_145-31    C    0.13789999    0.62368994    0.50401034    -0.11060000
opls_523-32    C    0.19209982    0.64548988    0.57149095    -0.11960000
opls_521-33    C    0.27695977    0.64255985    0.47914105    0.20550000
opls_142-34    C    0.94758014    0.44750004    0.75349899    0.03110000
opls_700-35    C    0.62319976    0.40127986    0.62041942    0.00210000
opls_523-36    C    0.56895984    0.37920991    0.70625108    -0.11930000
opls_145-37    C    0.54725988    0.41190009    0.76588049    -0.11450000
opls_700-38    C    0.57927998    0.46728005    0.73960069    0.05440000
opls_145-39    C    0.63310005    0.48944013    0.64492962    -0.11510000
opls_523-40    C    0.65495014    0.45674003    0.58675955    -0.12610000
opls_531-41    C    0.64672010    0.36664996    0.58056880    0.34280000
opls_142-42    C    0.44263009    0.49772991    0.18145935    0.02290000
opls_700-43    C    0.60088001    0.22253993    0.65440103    0.03730000
opls_523-44    C    0.62095997    0.19062008    0.79476013    -0.11610000
opls_145-45    C    0.58762993    0.13634996    0.84496984    -0.11920000
opls_700-46    C    0.53330001    0.11269011    0.76324045    0.05430000
opls_145-47    C    0.51265998    0.14426013    0.63124964    -0.11630000
opls_523-48    C    0.54622987    0.19880980    0.57731974    -0.12710000
opls_521-49    C    0.63614018    0.28040003    0.59634013    0.22110000
opls_142-50    C    0.50189990    0.94453983    0.17752945    0.02610000
opls_522-51    C    0.69071997    0.30230996    0.54178972    -0.21080000
opls_700-52    C    0.78188006    0.38285985    0.52550129    0.03250000
opls_523-53    C    0.81252991    0.43531017    0.65885952    -0.12130000
opls_145-54    C    0.86695007    0.45734994    0.72093939    -0.11500000
opls_700-55    C    0.89171973    0.42731978    0.65097960    0.05430000
opls_145-56    C    0.86210001    0.37631006    0.49598966    -0.11050000
opls_523-57    C    0.80790018    0.35451012    0.42850905    -0.11970000
opls_521-58    C    0.72304023    0.35744015    0.52085895    0.20550000
opls_142-59    C    0.05241986    0.55249996    0.24650101    0.02660000
opls_526-60    H    0.45640988    0.66335001    0.26496984    0.11900000
opls_526-61    H    0.30324985    0.52526999    0.48170928    0.11940000
opls_146-62    H    0.49443001    0.60593980    0.16226084    0.11900000
opls_146-63    H    0.34164006    0.46793006    0.37862109    0.11910000
opls_144-64    H    0.58150013    0.54454015    0.76723068    0.11450000
opls_526-65    H    0.33801005    0.79268997    0.12083022    0.12350000
opls_526-66    H    0.47020007    0.77747993    0.53008905    0.12060000
opls_146-67    H    0.39582002    0.88712009    0.04498133    0.11940000
opls_146-68    H    0.52923996    0.87332999    0.43253950    0.11900000
opls_144-69    H    0.45656010    0.03695995    0.74449009    0.09810000
opls_526-70    H    0.20616002    0.54174989    0.26525998    0.11940000
opls_526-71    H    0.21313999    0.68455989    0.69850043    0.12510000
opls_146-72    H    0.11063981    0.50295981    0.16147946    0.11900000
opls_146-73    H    0.11915009    0.64689990    0.56931916    0.11900000
opls_144-74    H    0.96657005    0.42486982    0.67632864    0.09840000
opls_525-75    H    0.29233999    0.72308988    0.47197932    0.09950000
opls_526-76    H    0.54358993    0.33665991    0.73503016    0.11900000
opls_526-77    H    0.69675015    0.47473001    0.51829072    0.12120000
opls_146-78    H    0.50557014    0.39407013    0.83773916    0.11940000
opls_146-79    H    0.65835994    0.53206994    0.62137891    0.11900000
opls_144-80    H    0.41849987    0.45545985    0.23276932    0.11450000
opls_526-81    H    0.66198995    0.20731003    0.87916978    0.12350000
opls_526-82    H    0.52979993    0.22252007    0.46991095    0.12060000
opls_146-83    H    0.60417998    0.11287991    0.95501867    0.11940000
opls_146-84    H    0.47076004    0.12667001    0.56746050    0.11900000
opls_144-85    H    0.54343990    0.96304005    0.25550991    0.09810000
opls_526-86    H    0.79383998    0.45825011    0.73474002    0.11940000
opls_526-87    H    0.78686001    0.31544011    0.30149957    0.12510000
opls_146-88    H    0.88935999    0.49703979    0.83852054    0.11900000
opls_146-89    H    0.88084991    0.35310010    0.43068084    0.11900000
opls_144-90    H    0.03342975    0.57512978    0.32367136    0.09840000
opls_525-91    H    0.70766001    0.27691012    0.52802068    0.09950000
