#======================================================================
# Crystal Data Generated By AuToFF
#----------------------------------------------------------------------

data_AuToFF_phase_1

_cell_length_a                         54.5843
_cell_length_b                         54.5843
_cell_length_c                         3.2388
_cell_angle_alpha                      90.00
_cell_angle_beta                       90.00
_cell_angle_gamma                      120.00
_symmetry_space_group_name_H-M_alt     'P 1'
_symmetry_space_group_IT_number        1

loop_
_space_group_symop_operation_xyz
   'x, y, z'

loop_
   _atom_site_label
   _atom_site_type_symbol
   _atom_site_fract_x
   _atom_site_fract_y
   _atom_site_fract_z
   _atom_site_charge
opls_700-0    C    0.51131000    0.51544010    0.50000000    -0.02040000
opls_145-1    C    0.54341002    0.52481998    0.50000000    0.05330000
opls_145-2    C    0.49083005    0.45632993    0.50000000    0.05700000
opls_145-3    C    0.56966006    0.54853009    0.50000000    -0.23740000
opls_145-4    C    0.59400995    0.54946999    0.50000000    -0.22300000
opls_145-5    C    0.59553004    0.52699000    0.50000000    0.02810000
opls_145-6    C    0.57171003    0.50447004    0.50000000    -0.22080000
opls_145-7    C    0.54855008    0.50543003    0.50000000    -0.19460000
opls_145-8    C    0.51145996    0.44909997    0.50000000    -0.23630000
opls_145-9    C    0.50932999    0.42440999    0.50000000    -0.22040000
opls_145-10    C    0.48556000    0.40192006    0.50000000    0.02950000
opls_145-11    C    0.46478003    0.40610991    0.50000000    -0.22040000
opls_145-12    C    0.46833000    0.43137001    0.50000000    -0.20650000
opls_145-13    C    0.62095008    0.52683008    0.50000000    0.03670000
opls_145-14    C    0.48270008    0.37513007    0.50000000    0.03440000
opls_145-15    C    0.64526006    0.54998996    0.50000000    -0.22300000
opls_145-16    C    0.66861993    0.54961997    0.50000000    -0.22070000
opls_145-17    C    0.66874010    0.52603002    0.50000000    0.06680000
opls_145-18    C    0.64462006    0.50304994    0.50000000    -0.22130000
opls_145-19    C    0.62139993    0.50333997    0.50000000    -0.22140000
opls_145-20    C    0.50458996    0.37182998    0.50000000    -0.22070000
opls_145-21    C    0.50220008    0.34732002    0.50000000    -0.22040000
opls_145-22    C    0.47775991    0.32459993    0.50000000    0.06760000
opls_145-23    C    0.45585003    0.32772994    0.50000000    -0.22260000
opls_145-24    C    0.45816994    0.35230993    0.50000000    -0.22210000
opls_142-25    C    0.69222992    0.52283992    0.50000000    -0.16300000
opls_142-26    C    0.47303991    0.29725993    0.50000000    -0.16350000
opls_141-27    C    0.71799005    0.54059993    0.50000000    -0.01830000
opls_145-28    C    0.73846998    0.53252993    0.50000000    0.03690000
opls_423-29    C    0.72699002    0.56806009    0.50000000    0.24580000
opls_145-30    C    0.76509009    0.55145004    0.50000000    -0.22290000
opls_145-31    C    0.78445002    0.54463006    0.50000000    -0.22260000
opls_145-32    C    0.77816002    0.51839009    0.50000000    0.03440000
opls_145-33    C    0.75156005    0.49956009    0.50000000    -0.22110000
opls_145-34    C    0.73230989    0.50632994    0.50000000    -0.22070000
opls_141-35    C    0.79824002    0.50981006    0.50000000    -0.02150000
opls_423-36    C    0.51784992    0.30612999    0.50000000    0.24560000
opls_700-37    C    0.48455992    0.99587002    0.50000000    -0.02040000
opls_145-38    C    0.47518011    0.01859010    0.50000000    0.05330000
opls_145-39    C    0.54367002    0.03449994    0.50000000    0.05700000
opls_145-40    C    0.45146994    0.02112991    0.50000000    -0.23740000
opls_145-41    C    0.45052998    0.04454005    0.50000000    -0.22300000
opls_145-42    C    0.47301007    0.06853998    0.50000000    0.02810000
opls_145-43    C    0.49552994    0.06724004    0.50000000    -0.22080000
opls_145-44    C    0.49456998    0.04311995    0.50000000    -0.19460000
opls_145-45    C    0.55089992    0.06235992    0.50000000    -0.23630000
opls_145-46    C    0.57559008    0.08492008    0.50000000    -0.22050000
opls_145-47    C    0.59807996    0.08364002    0.50000000    0.02900000
opls_145-48    C    0.59388998    0.05866995    0.50000000    -0.22040000
opls_145-49    C    0.56862995    0.03695999    0.50000000    -0.20650000
opls_145-50    C    0.47317004    0.09411993    0.50000000    0.03670000
opls_145-51    C    0.62486987    0.10756993    0.50000000    0.03450000
opls_145-52    C    0.45001009    0.09527010    0.50000000    -0.22300000
opls_145-53    C    0.45038003    0.11900010    0.50000000    -0.22070000
opls_145-54    C    0.47397004    0.14271000    0.50000000    0.06680000
opls_145-55    C    0.49695003    0.14156999    0.50000000    -0.22130000
opls_145-56    C    0.49666005    0.11805999    0.50000000    -0.22140000
opls_145-57    C    0.62816993    0.13276001    0.50000000    -0.22070000
opls_145-58    C    0.65267992    0.15487994    0.50000000    -0.22040000
opls_145-59    C    0.67540003    0.15316008    0.50000000    0.06760000
opls_145-60    C    0.67227005    0.12811999    0.50000000    -0.22250000
opls_145-61    C    0.64769004    0.10586001    0.50000000    -0.22210000
opls_142-62    C    0.47716004    0.16938998    0.50000000    -0.16300000
opls_142-63    C    0.70274011    0.17578011    0.50000000    -0.16350000
opls_141-64    C    0.45939993    0.17738996    0.50000000    -0.01830000
opls_145-65    C    0.46747005    0.20594000    0.50000000    0.03690000
opls_423-66    C    0.43193996    0.15892996    0.50000000    0.24580000
opls_145-67    C    0.44854995    0.21364001    0.50000000    -0.22300000
opls_145-68    C    0.45536996    0.23981990    0.50000000    -0.22260000
opls_145-69    C    0.48160996    0.25977002    0.50000000    0.03440000
opls_145-70    C    0.50044008    0.25199999    0.50000000    -0.22110000
opls_145-71    C    0.49366999    0.22598003    0.50000000    -0.22070000
opls_141-72    C    0.49018997    0.28843006    0.50000000    -0.02150000
opls_423-73    C    0.69386994    0.21172003    0.50000000    0.24550000
opls_700-74    C    0.00413000    0.48869009    0.50000000    -0.02040000
opls_145-75    C    0.98141005    0.45658992    0.50000000    0.05330000
opls_145-76    C    0.96550000    0.50916992    0.50000000    0.05700000
opls_145-77    C    0.97887000    0.43034000    0.50000000    -0.23740000
opls_145-78    C    0.95546007    0.40598997    0.50000000    -0.22300000
opls_145-79    C    0.93146008    0.40447002    0.50000000    0.02810000
opls_145-80    C    0.93276002    0.42828992    0.50000000    -0.22080000
opls_145-81    C    0.95687994    0.45145002    0.50000000    -0.19460000
opls_145-82    C    0.93764013    0.48854011    0.50000000    -0.23630000
opls_145-83    C    0.91507993    0.49066994    0.50000000    -0.22050000
opls_145-84    C    0.91636004    0.51443992    0.50000000    0.02950000
opls_145-85    C    0.94132988    0.53521993    0.50000000    -0.22040000
opls_145-86    C    0.96304006    0.53167000    0.50000000    -0.20650000
opls_145-87    C    0.90588007    0.37904999    0.50000000    0.03670000
opls_145-88    C    0.89243004    0.51730000    0.50000000    0.03440000
opls_145-89    C    0.90473003    0.35473994    0.50000000    -0.22300000
opls_145-90    C    0.88100005    0.33137993    0.50000000    -0.22070000
opls_145-91    C    0.85729005    0.33125999    0.50000000    0.06680000
opls_145-92    C    0.85843010    0.35538007    0.50000000    -0.22130000
opls_145-93    C    0.88194003    0.37860004    0.50000000    -0.22140000
opls_145-94    C    0.86723993    0.49541001    0.50000000    -0.22070000
opls_145-95    C    0.84512000    0.49780004    0.50000000    -0.22040000
opls_145-96    C    0.84684006    0.52223998    0.50000000    0.06760000
opls_145-97    C    0.87188011    0.54415007    0.50000000    -0.22260000
opls_145-98    C    0.89414002    0.54183006    0.50000000    -0.22260000
opls_142-99    C    0.83061004    0.30777009    0.50000000    -0.16300000
opls_142-100    C    0.82421998    0.52695996    0.50000000    -0.16350000
opls_141-101    C    0.82260992    0.28200990    0.50000000    -0.01830000
opls_145-102    C    0.79405998    0.26153007    0.50000000    0.03690000
opls_423-103    C    0.84107003    0.27300995    0.50000000    0.24580000
opls_145-104    C    0.78635995    0.23490995    0.50000000    -0.22300000
opls_145-105    C    0.76018002    0.21555004    0.50000000    -0.22260000
opls_145-106    C    0.74023013    0.22184010    0.50000000    0.03440000
opls_145-107    C    0.74799987    0.24843991    0.50000000    -0.22110000
opls_145-108    C    0.77401994    0.26769003    0.50000000    -0.22070000
opls_141-109    C    0.71157012    0.20176009    0.50000000    -0.02150000
opls_423-110    C    0.78827996    0.48214999    0.50000000    0.24550000
opls_700-111    C    0.48869000    0.48455990    0.50000000    -0.02040000
opls_145-112    C    0.45658998    0.47518002    0.50000000    0.05340000
opls_145-113    C    0.50916995    0.54367007    0.50000000    0.05700000
opls_145-114    C    0.43033994    0.45146991    0.50000000    -0.23740000
opls_145-115    C    0.40599005    0.45053001    0.50000000    -0.22300000
opls_145-116    C    0.40446996    0.47301000    0.50000000    0.02810000
opls_145-117    C    0.42828997    0.49552996    0.50000000    -0.22080000
opls_145-118    C    0.45144992    0.49456997    0.50000000    -0.19460000
opls_145-119    C    0.48854004    0.55090003    0.50000000    -0.23630000
opls_145-120    C    0.49067001    0.57559001    0.50000000    -0.22050000
opls_145-121    C    0.51444000    0.59807994    0.50000000    0.02950000
opls_145-122    C    0.53521997    0.59389009    0.50000000    -0.22040000
opls_145-123    C    0.53167000    0.56862999    0.50000000    -0.20650000
opls_145-124    C    0.37904992    0.47316992    0.50000000    0.03670000
opls_145-125    C    0.51729992    0.62486993    0.50000000    0.03440000
opls_145-126    C    0.35473994    0.45001004    0.50000000    -0.22300000
opls_145-127    C    0.33138007    0.45038003    0.50000000    -0.22070000
opls_145-128    C    0.33125990    0.47396998    0.50000000    0.06680000
opls_145-129    C    0.35537994    0.49695006    0.50000000    -0.22130000
opls_145-130    C    0.37860007    0.49666003    0.50000000    -0.22140000
opls_145-131    C    0.49541004    0.62817002    0.50000000    -0.22070000
opls_145-132    C    0.49779992    0.65267998    0.50000000    -0.22040000
opls_145-133    C    0.52224009    0.67540007    0.50000000    0.06760000
opls_145-134    C    0.54414997    0.67227006    0.50000000    -0.22260000
opls_145-135    C    0.54183006    0.64769007    0.50000000    -0.22210000
opls_142-136    C    0.30777008    0.47716008    0.50000000    -0.16300000
opls_142-137    C    0.52696009    0.70274007    0.50000000    -0.16350000
opls_141-138    C    0.28200995    0.45940007    0.50000000    -0.01830000
opls_145-139    C    0.26153002    0.46747007    0.50000000    0.03690000
opls_423-140    C    0.27300998    0.43193991    0.50000000    0.24580000
opls_145-141    C    0.23490991    0.44854996    0.50000000    -0.22300000
opls_145-142    C    0.21554998    0.45536994    0.50000000    -0.22260000
opls_145-143    C    0.22183998    0.48160991    0.50000000    0.03440000
opls_145-144    C    0.24843995    0.50043991    0.50000000    -0.22110000
opls_145-145    C    0.26769011    0.49367006    0.50000000    -0.22070000
opls_141-146    C    0.20175998    0.49018994    0.50000000    -0.02150000
opls_423-147    C    0.48215008    0.69387001    0.50000000    0.24550000
opls_700-148    C    0.51544008    0.00412998    0.50000000    -0.02040000
opls_145-149    C    0.52481999    0.98141011    0.50000000    0.05330000
opls_145-150    C    0.45632998    0.96550006    0.50000000    0.05700000
opls_145-151    C    0.54853006    0.97887009    0.50000000    -0.23740000
opls_145-152    C    0.54947002    0.95545995    0.50000000    -0.22300000
opls_145-153    C    0.52698993    0.93146002    0.50000000    0.02810000
opls_145-154    C    0.50447006    0.93275996    0.50000000    -0.22080000
opls_145-155    C    0.50543002    0.95688005    0.50000000    -0.19460000
opls_145-156    C    0.44910008    0.93764008    0.50000000    -0.23630000
opls_145-157    C    0.42440992    0.91507992    0.50000000    -0.22050000
opls_145-158    C    0.40192004    0.91635998    0.50000000    0.02900000
opls_145-159    C    0.40611002    0.94133005    0.50000000    -0.22040000
opls_145-160    C    0.43137005    0.96304001    0.50000000    -0.20650000
opls_145-161    C    0.52682996    0.90588007    0.50000000    0.03670000
opls_145-162    C    0.37513013    0.89243007    0.50000000    0.03440000
opls_145-163    C    0.54999001    0.90473011    0.50000000    -0.22290000
opls_145-164    C    0.54961997    0.88099990    0.50000000    -0.22070000
opls_145-165    C    0.52602996    0.85729000    0.50000000    0.06680000
opls_145-166    C    0.50304997    0.85843001    0.50000000    -0.22130000
opls_145-167    C    0.50333995    0.88194001    0.50000000    -0.22140000
opls_145-168    C    0.37183007    0.86723999    0.50000000    -0.22070000
opls_145-169    C    0.34732008    0.84512006    0.50000000    -0.22040000
opls_145-170    C    0.32459997    0.84683992    0.50000000    0.06760000
opls_145-171    C    0.32772995    0.87188001    0.50000000    -0.22260000
opls_145-172    C    0.35230996    0.89413999    0.50000000    -0.22210000
opls_142-173    C    0.52283996    0.83061002    0.50000000    -0.16300000
opls_142-174    C    0.29725999    0.82422010    0.50000000    -0.16340000
opls_141-175    C    0.54060007    0.82261004    0.50000000    -0.01830000
opls_145-176    C    0.53252995    0.79406000    0.50000000    0.03690000
opls_423-177    C    0.56806004    0.84107004    0.50000000    0.24580000
opls_145-178    C    0.55145005    0.78635999    0.50000000    -0.22290000
opls_145-179    C    0.54463004    0.76018010    0.50000000    -0.22260000
opls_145-180    C    0.51839004    0.74022998    0.50000000    0.03440000
opls_145-181    C    0.49955992    0.74800001    0.50000000    -0.22110000
opls_145-182    C    0.50633001    0.77401997    0.50000000    -0.22070000
opls_141-183    C    0.50981003    0.71156994    0.50000000    -0.02150000
opls_423-184    C    0.30613006    0.78827997    0.50000000    0.24560000
opls_700-185    C    0.99587000    0.51130991    0.50000000    -0.02040000
opls_145-186    C    0.01858995    0.54341008    0.50000000    0.05330000
opls_145-187    C    0.03450000    0.49083008    0.50000000    0.05700000
opls_145-188    C    0.02113000    0.56966000    0.50000000    -0.23740000
opls_145-189    C    0.04453993    0.59401003    0.50000000    -0.22300000
opls_145-190    C    0.06853992    0.59552998    0.50000000    0.02810000
opls_145-191    C    0.06723998    0.57171008    0.50000000    -0.22080000
opls_145-192    C    0.04312006    0.54854998    0.50000000    -0.19460000
opls_145-193    C    0.06235998    0.51146010    0.50000000    -0.23630000
opls_145-194    C    0.08492007    0.50933006    0.50000000    -0.22040000
opls_145-195    C    0.08363996    0.48556008    0.50000000    0.02950000
opls_145-196    C    0.05867012    0.46478007    0.50000000    -0.22040000
opls_145-197    C    0.03695994    0.46833000    0.50000000    -0.20650000
opls_145-198    C    0.09411993    0.62095001    0.50000000    0.03670000
opls_145-199    C    0.10756996    0.48270000    0.50000000    0.03440000
opls_145-200    C    0.09526997    0.64526006    0.50000000    -0.22300000
opls_145-201    C    0.11899995    0.66862007    0.50000000    -0.22070000
opls_145-202    C    0.14270995    0.66874001    0.50000000    0.06680000
opls_145-203    C    0.14156990    0.64461993    0.50000000    -0.22130000
opls_145-204    C    0.11805997    0.62139996    0.50000000    -0.22140000
opls_145-205    C    0.13276007    0.50458999    0.50000000    -0.22070000
opls_145-206    C    0.15488000    0.50219996    0.50000000    -0.22040000
opls_145-207    C    0.15315994    0.47776002    0.50000000    0.06760000
opls_145-208    C    0.12811989    0.45584993    0.50000000    -0.22260000
opls_145-209    C    0.10585998    0.45816994    0.50000000    -0.22260000
opls_142-210    C    0.16938996    0.69222991    0.50000000    -0.16300000
opls_142-211    C    0.17578002    0.47304004    0.50000000    -0.16350000
opls_141-212    C    0.17739008    0.71799010    0.50000000    -0.01830000
opls_145-213    C    0.20594002    0.73846993    0.50000000    0.03690000
opls_423-214    C    0.15892997    0.72699005    0.50000000    0.24580000
opls_145-215    C    0.21364005    0.76509005    0.50000000    -0.22300000
opls_145-216    C    0.23981998    0.78444996    0.50000000    -0.22260000
opls_145-217    C    0.25976998    0.77816011    0.50000000    0.03440000
opls_145-218    C    0.25200013    0.75156009    0.50000000    -0.22110000
opls_145-219    C    0.22598006    0.73230997    0.50000000    -0.22060000
opls_141-220    C    0.28842988    0.79823991    0.50000000    -0.02150000
opls_423-221    C    0.21172004    0.51785001    0.50000000    0.24550000
opls_753-222    N    0.54012008    0.31978010    0.50000000    -0.31950000
opls_753-223    N    0.73468012    0.59017008    0.50000000    -0.31960000
opls_753-224    N    0.68022002    0.22034004    0.50000000    -0.31960000
opls_753-225    N    0.40983011    0.14451003    0.50000000    -0.31950000
opls_753-226    N    0.77966001    0.45988007    0.50000000    -0.31950000
opls_753-227    N    0.85549006    0.26532010    0.50000000    -0.31960000
opls_753-228    N    0.45988002    0.68022011    0.50000000    -0.31960000
opls_753-229    N    0.26531988    0.40982992    0.50000000    -0.31960000
opls_753-230    N    0.31977998    0.77965996    0.50000000    -0.31950000
opls_753-231    N    0.59016989    0.85548997    0.50000000    -0.31960000
opls_753-232    N    0.22033999    0.54011993    0.50000000    -0.31960000
opls_753-233    N    0.14451005    0.73468011    0.50000000    -0.31960000
opls_146-234    H    0.57772004    0.56900992    0.50000000    0.20510000
opls_146-235    H    0.61164007    0.56815000    0.50000000    0.20530000
opls_146-236    H    0.57055999    0.48600009    0.50000000    0.20520000
opls_146-237    H    0.53180999    0.49123011    0.50000000    0.20240000
opls_146-238    H    0.53167994    0.45989001    0.50000000    0.20550000
opls_146-239    H    0.52702997    0.42352002    0.50000000    0.20540000
opls_146-240    H    0.44509993    0.39006998    0.50000000    0.20530000
opls_146-241    H    0.45147000    0.42886998    0.50000000    0.20240000
opls_146-242    H    0.64694994    0.56885000    0.50000000    0.20530000
opls_146-243    H    0.68600999    0.56811996    0.50000000    0.20510000
opls_146-244    H    0.64351994    0.48432995    0.50000000    0.20550000
opls_146-245    H    0.60414991    0.48458000    0.50000000    0.20480000
opls_146-246    H    0.52414998    0.38784009    0.50000000    0.20480000
opls_146-247    H    0.52010986    0.34733990    0.50000000    0.20500000
opls_146-248    H    0.43653001    0.31091999    0.50000000    0.20550000
opls_146-249    H    0.44032996    0.35277004    0.50000000    0.20530000
opls_144-250    H    0.68679009    0.50277007    0.50000000    0.20540000
opls_144-251    H    0.45273011    0.28309005    0.50000000    0.20560000
opls_146-252    H    0.77137005    0.57191993    0.50000000    0.20530000
opls_146-253    H    0.80414998    0.56047009    0.50000000    0.20480000
opls_146-254    H    0.74505004    0.47905001    0.50000000    0.20530000
opls_146-255    H    0.71278000    0.49025002    0.50000000    0.20480000
opls_146-256    H    0.43098991    0.00870992    0.50000000    0.20510000
opls_146-257    H    0.43184989    0.04348994    0.50000000    0.20530000
opls_146-258    H    0.51400009    0.08456003    0.50000000    0.20520000
opls_146-259    H    0.50876999    0.04057994    0.50000000    0.20240000
opls_146-260    H    0.54010992    0.07178993    0.50000000    0.20550000
opls_146-261    H    0.57648004    0.10350997    0.50000000    0.20530000
opls_146-262    H    0.60993004    0.05502990    0.50000000    0.20530000
opls_146-263    H    0.57112999    0.02259993    0.50000000    0.20240000
opls_146-264    H    0.43114997    0.07810009    0.50000000    0.20530000
opls_146-265    H    0.43188003    0.11788991    0.50000000    0.20510000
opls_146-266    H    0.51567000    0.15918995    0.50000000    0.20550000
opls_146-267    H    0.51542004    0.11957000    0.50000000    0.20480000
opls_146-268    H    0.61215993    0.13630993    0.50000000    0.20480000
opls_146-269    H    0.65265994    0.17277004    0.50000000    0.20500000
opls_146-270    H    0.68907996    0.12561001    0.50000000    0.20550000
opls_146-271    H    0.64723005    0.08755994    0.50000000    0.20530000
opls_144-272    H    0.49722999    0.18401997    0.50000000    0.20540000
opls_144-273    H    0.71691001    0.16964003    0.50000000    0.20550000
opls_146-274    H    0.42808005    0.19945003    0.50000000    0.20530000
opls_146-275    H    0.43953004    0.24367995    0.50000000    0.20480000
opls_146-276    H    0.52095002    0.26600001    0.50000000    0.20530000
opls_146-277    H    0.50974989    0.22252995    0.50000000    0.20480000
opls_146-278    H    0.99128994    0.42227995    0.50000000    0.20510000
opls_146-279    H    0.95651004    0.38836006    0.50000000    0.20530000
opls_146-280    H    0.91544003    0.42944009    0.50000000    0.20520000
opls_146-281    H    0.95942003    0.46818996    0.50000000    0.20240000
opls_146-282    H    0.92820997    0.46832006    0.50000000    0.20550000
opls_146-283    H    0.89648999    0.47297001    0.50000000    0.20530000
opls_146-284    H    0.94496992    0.55489991    0.50000000    0.20530000
opls_146-285    H    0.97740001    0.54853009    0.50000000    0.20240000
opls_146-286    H    0.92189991    0.35304991    0.50000000    0.20530000
opls_146-287    H    0.88210987    0.31398992    0.50000000    0.20510000
opls_146-288    H    0.84081006    0.35648010    0.50000000    0.20550000
opls_146-289    H    0.88043005    0.39585001    0.50000000    0.20480000
opls_146-290    H    0.86368991    0.47584998    0.50000000    0.20480000
opls_146-291    H    0.82723002    0.47989006    0.50000000    0.20500000
opls_146-292    H    0.87439003    0.56347000    0.50000000    0.20550000
opls_146-293    H    0.91243999    0.55967002    0.50000000    0.20530000
opls_144-294    H    0.81597993    0.31320996    0.50000000    0.20550000
opls_144-295    H    0.83035988    0.54726992    0.50000000    0.20560000
opls_146-296    H    0.80055008    0.22863004    0.50000000    0.20540000
opls_146-297    H    0.75631998    0.19584996    0.50000000    0.20470000
opls_146-298    H    0.73399994    0.25494998    0.50000000    0.20530000
opls_146-299    H    0.77746993    0.28722003    0.50000000    0.20490000
opls_146-300    H    0.42227996    0.43099008    0.50000000    0.20510000
opls_146-301    H    0.38835993    0.43185000    0.50000000    0.20540000
opls_146-302    H    0.42944001    0.51399991    0.50000000    0.20520000
opls_146-303    H    0.46819012    0.50877010    0.50000000    0.20240000
opls_146-304    H    0.46832006    0.54010999    0.50000000    0.20550000
opls_146-305    H    0.47297003    0.57647998    0.50000000    0.20530000
opls_146-306    H    0.55490007    0.60993002    0.50000000    0.20530000
opls_146-307    H    0.54853000    0.57113002    0.50000000    0.20240000
opls_146-308    H    0.35305006    0.43115000    0.50000000    0.20530000
opls_146-309    H    0.31399001    0.43188004    0.50000000    0.20510000
opls_146-310    H    0.35648006    0.51567005    0.50000000    0.20550000
opls_146-311    H    0.39585009    0.51542000    0.50000000    0.20480000
opls_146-312    H    0.47585002    0.61215991    0.50000000    0.20490000
opls_146-313    H    0.47989014    0.65266010    0.50000000    0.20500000
opls_146-314    H    0.56346999    0.68908001    0.50000000    0.20550000
opls_146-315    H    0.55967004    0.64722996    0.50000000    0.20530000
opls_144-316    H    0.31320991    0.49722993    0.50000000    0.20540000
opls_144-317    H    0.54726989    0.71690995    0.50000000    0.20550000
opls_146-318    H    0.22862995    0.42808007    0.50000000    0.20530000
opls_146-319    H    0.19585002    0.43952991    0.50000000    0.20470000
opls_146-320    H    0.25494996    0.52094999    0.50000000    0.20530000
opls_146-321    H    0.28722000    0.50974998    0.50000000    0.20480000
opls_146-322    H    0.56901009    0.99129008    0.50000000    0.20510000
opls_146-323    H    0.56815011    0.95651006    0.50000000    0.20530000
opls_146-324    H    0.48599991    0.91543997    0.50000000    0.20530000
opls_146-325    H    0.49123001    0.95942006    0.50000000    0.20240000
opls_146-326    H    0.45989008    0.92821007    0.50000000    0.20550000
opls_146-327    H    0.42351996    0.89649003    0.50000000    0.20530000
opls_146-328    H    0.39006996    0.94497010    0.50000000    0.20530000
opls_146-329    H    0.42887001    0.97740007    0.50000000    0.20240000
opls_146-330    H    0.56885003    0.92189991    0.50000000    0.20530000
opls_146-331    H    0.56811997    0.88211009    0.50000000    0.20520000
opls_146-332    H    0.48433000    0.84081005    0.50000000    0.20550000
opls_146-333    H    0.48457996    0.88043000    0.50000000    0.20480000
opls_146-334    H    0.38784007    0.86369007    0.50000000    0.20480000
opls_146-335    H    0.34734006    0.82722996    0.50000000    0.20500000
opls_146-336    H    0.31092004    0.87438999    0.50000000    0.20550000
opls_146-337    H    0.35276995    0.91244006    0.50000000    0.20530000
opls_144-338    H    0.50277001    0.81598003    0.50000000    0.20540000
opls_144-339    H    0.28308999    0.83035997    0.50000000    0.20550000
opls_146-340    H    0.57191995    0.80054997    0.50000000    0.20530000
opls_146-341    H    0.56046996    0.75632005    0.50000000    0.20470000
opls_146-342    H    0.47904998    0.73399999    0.50000000    0.20540000
opls_146-343    H    0.49025011    0.77747005    0.50000000    0.20480000
opls_146-344    H    0.00871006    0.57772005    0.50000000    0.20510000
opls_146-345    H    0.04348996    0.61163994    0.50000000    0.20530000
opls_146-346    H    0.08455997    0.57055991    0.50000000    0.20520000
opls_146-347    H    0.04057997    0.53181004    0.50000000    0.20240000
opls_146-348    H    0.07179003    0.53167994    0.50000000    0.20560000
opls_146-349    H    0.10351001    0.52702999    0.50000000    0.20530000
opls_146-350    H    0.05503008    0.44510009    0.50000000    0.20530000
opls_146-351    H    0.02259999    0.45146991    0.50000000    0.20240000
opls_146-352    H    0.07810009    0.64695009    0.50000000    0.20530000
opls_146-353    H    0.11789013    0.68601008    0.50000000    0.20510000
opls_146-354    H    0.15919005    0.64352011    0.50000000    0.20560000
opls_146-355    H    0.11956995    0.60414999    0.50000000    0.20480000
opls_146-356    H    0.13631009    0.52415002    0.50000000    0.20480000
opls_146-357    H    0.17276998    0.52010994    0.50000000    0.20500000
opls_146-358    H    0.12560997    0.43653000    0.50000000    0.20550000
opls_146-359    H    0.08756001    0.44032998    0.50000000    0.20540000
opls_144-360    H    0.18402007    0.68679004    0.50000000    0.20540000
opls_144-361    H    0.16964012    0.45273008    0.50000000    0.20550000
opls_146-362    H    0.19944992    0.77136996    0.50000000    0.20530000
opls_146-363    H    0.24368002    0.80415004    0.50000000    0.20470000
opls_146-364    H    0.26600006    0.74505002    0.50000000    0.20530000
opls_146-365    H    0.22253007    0.71277997    0.50000000    0.20480000
