#======================================================================
# Crystal Data Generated By AuToFF
#----------------------------------------------------------------------

data_AuToFF_phase_1

_cell_length_a                         29.0500
_cell_length_b                         29.0500
_cell_length_c                         3.9100
_cell_angle_alpha                      90.00
_cell_angle_beta                       90.00
_cell_angle_gamma                      120.00
_symmetry_space_group_name_H-M_alt     'P 1'
_symmetry_space_group_IT_number        1

loop_
_space_group_symop_operation_xyz
   'x, y, z'

loop_
   _atom_site_label
   _atom_site_type_symbol
   _atom_site_fract_x
   _atom_site_fract_y
   _atom_site_fract_z
   _atom_site_charge
opls_166-0    C    0.52709995    0.41793001    0.89987980    0.34740000
opls_166-1    C    0.58206996    0.10916987    0.89987980    0.34740000
opls_166-2    C    0.89083009    0.47290011    0.89987980    0.34740000
opls_166-3    C    0.41792998    0.52709989    0.10012020    0.34740000
opls_166-4    C    0.10916993    0.58206999    0.10012020    0.34740000
opls_166-5    C    0.47289989    0.89082973    0.10012020    0.34740000
opls_700-6    C    0.58007994    0.44924008    0.76572123    -0.03410000
opls_700-7    C    0.55076014    0.13084008    0.76572123    -0.03410000
opls_700-8    C    0.86915992    0.41991983    0.76572123    -0.03410000
opls_700-9    C    0.44923988    0.58007977    0.23427877    -0.03410000
opls_700-10    C    0.13083985    0.55075992    0.23427877    -0.03410000
opls_700-11    C    0.41992006    0.86915992    0.23427877    -0.03410000
opls_145-12    C    0.61304020    0.42702015    0.76802046    -0.09820000
opls_145-13    C    0.57298008    0.18602006    0.76802046    -0.09820000
opls_145-14    C    0.81397973    0.38695979    0.76802046    -0.09820000
opls_145-15    C    0.42702008    0.61303981    0.23197954    -0.09820000
opls_145-16    C    0.18602005    0.57297985    0.23197954    -0.09820000
opls_145-17    C    0.38696002    0.81397994    0.23197954    -0.09820000
opls_700-18    C    0.59562992    0.37542988    0.88434015    0.07630000
opls_700-19    C    0.62456987    0.22019998    0.88434015    0.07630000
opls_700-20    C    0.77980021    0.40437013    0.88434015    0.07630000
opls_700-21    C    0.37543008    0.59562987    0.11565985    0.07630000
opls_700-22    C    0.22020003    0.62457012    0.11565985    0.07630000
opls_700-23    C    0.40436989    0.77980002    0.11565985    0.07630000
opls_145-24    C    0.54386008    0.34515010    0.00780051    -0.13380000
opls_145-25    C    0.65484993    0.19870984    0.00780051    -0.13380000
opls_145-26    C    0.80129000    0.45614006    0.00780051    -0.13380000
opls_145-27    C    0.34514993    0.54385994    0.99219949    -0.13380000
opls_145-28    C    0.19870998    0.65484990    0.99219949    -0.13380000
opls_145-29    C    0.45613989    0.80128977    0.99219949    -0.13380000
opls_145-30    C    0.51041982    0.36650987    0.01802046    -0.22210000
opls_145-31    C    0.63348987    0.14390986    0.01802046    -0.22210000
opls_145-32    C    0.85609011    0.48957987    0.01802046    -0.22210000
opls_145-33    C    0.36650989    0.51042013    0.98197954    -0.22210000
opls_145-34    C    0.14390995    0.63349013    0.98197954    -0.22210000
opls_145-35    C    0.48957981    0.85608974    0.98197954    -0.22210000
opls_700-36    C    0.63194010    0.35384990    0.88193095    0.06900000
opls_700-37    C    0.64615000    0.27809003    0.88193095    0.06900000
opls_700-38    C    0.72190990    0.36806007    0.88193095    0.06900000
opls_700-39    C    0.35384983    0.63193993    0.11806905    0.06900000
opls_700-40    C    0.27809020    0.64615010    0.11806905    0.06900000
opls_700-41    C    0.36805998    0.72190997    0.11806905    0.06900000
opls_145-42    C    0.61187000    0.29890007    0.88205882    -0.10020000
opls_145-43    C    0.70110011    0.31296993    0.88205882    -0.10020000
opls_145-44    C    0.68702989    0.38813000    0.88205882    -0.10020000
opls_145-45    C    0.29889989    0.61187000    0.11794118    -0.10020000
opls_145-46    C    0.31296993    0.70109993    0.11794118    -0.10020000
opls_145-47    C    0.38813018    0.68703007    0.11794118    -0.10020000
opls_142-48    C    0.60875988    0.50518999    0.64185934    0.06810000
opls_142-49    C    0.49481016    0.10357007    0.64185934    0.06810000
opls_142-50    C    0.89642995    0.39123994    0.64185934    0.06810000
opls_142-51    C    0.50519001    0.60876006    0.35814066    0.06810000
opls_142-52    C    0.10356989    0.49481001    0.35814066    0.06810000
opls_142-53    C    0.39124009    0.89642993    0.35814066    0.06810000
opls_137-54    C    0.58808017    0.61655002    0.57652941    0.10950000
opls_137-55    C    0.38345001    0.97152998    0.57652941    0.10950000
opls_137-56    C    0.02847016    0.41192001    0.57652941    0.10950000
opls_137-57    C    0.61655015    0.58807999    0.42347059    0.10960000
opls_137-58    C    0.97153015    0.38344998    0.42347059    0.10950000
opls_137-59    C    0.41192004    0.02847002    0.42347059    0.10960000
opls_136-60    C    0.06020980    0.38429981    0.47783887    -0.20500000
opls_136-61    C    0.61569991    0.67590997    0.47783887    -0.20500000
opls_136-62    C    0.32408975    0.93978982    0.47783887    -0.20500000
opls_136-63    C    0.38429992    0.06021018    0.52216113    -0.20500000
opls_136-64    C    0.67590979    0.61569979    0.52216113    -0.20500000
opls_136-65    C    0.93978994    0.32409003    0.52216113    -0.20500000
opls_136-66    C    0.02527992    0.32522009    0.39305115    -0.14610000
opls_136-67    C    0.67478014    0.70006010    0.39305115    -0.14610000
opls_136-68    C    0.29993994    0.97471981    0.39305115    -0.14610000
opls_136-69    C    0.32522013    0.02528019    0.60694885    -0.14600000
opls_136-70    C    0.70005984    0.67477991    0.60694885    -0.14600000
opls_136-71    C    0.97472004    0.29993990    0.60694885    -0.14610000
opls_167-72    O    0.49027998    0.43495996    0.94384910    -0.28690000
opls_167-73    O    0.56503998    0.05531989    0.94384910    -0.28690000
opls_167-74    O    0.94468004    0.50972015    0.94384910    -0.28680000
opls_167-75    O    0.43495989    0.49027985    0.05615090    -0.28690000
opls_167-76    O    0.05532002    0.56504004    0.05615090    -0.28680000
opls_167-77    O    0.50972009    0.94468011    0.05615090    -0.28790000
opls_900-78    N    0.53126011    0.58763004    0.48903069    -0.19610000
opls_900-79    N    0.41236988    0.94362995    0.48903069    -0.19610000
opls_900-80    N    0.05637001    0.46874001    0.48903069    -0.19610000
opls_900-81    N    0.58762999    0.53125999    0.51096931    -0.19610000
opls_900-82    N    0.94363008    0.41236996    0.51096931    -0.19600000
opls_900-83    N    0.46873993    0.05637005    0.51096931    -0.19610000
opls_146-84    H    0.65574004    0.45115995    0.67273913    0.04190000
opls_146-85    H    0.54884005    0.20457993    0.67273913    0.04190000
opls_146-86    H    0.79541991    0.34426013    0.67273913    0.04190000
opls_146-87    H    0.45115978    0.65573987    0.32726087    0.04190000
opls_146-88    H    0.20458010    0.54884005    0.32726087    0.04190000
opls_146-89    H    0.34426012    0.79542007    0.32726087    0.04190000
opls_146-90    H    0.52888995    0.30278988    0.10058056    0.04190000
opls_146-91    H    0.69721001    0.22609989    0.10058056    0.04190000
opls_146-92    H    0.77389984    0.47110983    0.10058056    0.04190000
opls_146-93    H    0.30278981    0.52888977    0.89941944    0.04190000
opls_146-94    H    0.22610007    0.69721012    0.89941944    0.04190000
opls_146-95    H    0.47111013    0.77390011    0.89941944    0.04190000
opls_146-96    H    0.46843015    0.34199008    0.12434015    0.04190000
opls_146-97    H    0.65800997    0.12643990    0.12434015    0.04190000
opls_146-98    H    0.87355988    0.53157003    0.12434015    0.04190000
opls_146-99    H    0.34198986    0.46842997    0.87565985    0.04190000
opls_146-100    H    0.12644007    0.65800992    0.87565985    0.04190000
opls_146-101    H    0.53157007    0.87356010    0.87565985    0.04190000
opls_146-102    H    0.56709996    0.27048013    0.88227877    0.04190000
opls_146-103    H    0.72952003    0.29662009    0.88227877    0.04190000
opls_146-104    H    0.70338001    0.43289978    0.88227877    0.04190000
opls_146-105    H    0.27048003    0.56709982    0.11772123    0.04190000
opls_146-106    H    0.29661983    0.72951987    0.11772123    0.04190000
opls_146-107    H    0.43289994    0.70337991    0.11772123    0.04190000
opls_144-108    H    0.65396986    0.52943989    0.65769054    0.02470000
opls_144-109    H    0.47055999    0.12452997    0.65769054    0.02470000
opls_144-110    H    0.87547015    0.34603014    0.65769054    0.02470000
opls_144-111    H    0.52944001    0.65396986    0.34230946    0.02470000
opls_144-112    H    0.12452997    0.47056011    0.34230946    0.02470000
opls_144-113    H    0.34603002    0.87547003    0.34230946    0.02470000
opls_140-114    H    0.59086991    0.61476013    0.86657033    0.04680000
opls_140-115    H    0.38523977    0.97610982    0.86657033    0.04680000
opls_140-116    H    0.02388998    0.40913004    0.86657033    0.04680000
opls_140-117    H    0.61475994    0.59086996    0.13342967    0.04680000
opls_140-118    H    0.97610978    0.38523987    0.13342967    0.04680000
opls_140-119    H    0.40912994    0.02389018    0.13342967    0.04680000
opls_140-120    H    0.08603000    0.40546998    0.24621995    0.10120000
opls_140-121    H    0.59452980    0.68055977    0.24621995    0.10120000
opls_140-122    H    0.31944000    0.91396985    0.24621995    0.10120000
opls_140-123    H    0.40547015    0.08603015    0.75378005    0.10120000
opls_140-124    H    0.68056002    0.59453002    0.75378005    0.10120000
opls_140-125    H    0.91396983    0.31943983    0.75378005    0.10120000
opls_140-126    H    0.08717997    0.38906012    0.70297954    0.10120000
opls_140-127    H    0.61093984    0.69811996    0.70297954    0.10120000
opls_140-128    H    0.30187984    0.91281992    0.70297954    0.10120000
opls_140-129    H    0.38905992    0.08718008    0.29702046    0.10120000
opls_140-130    H    0.69811986    0.61093988    0.29702046    0.10120000
opls_140-131    H    0.91281988    0.30188004    0.29702046    0.10120000
opls_140-132    H    0.04852004    0.30391994    0.44605115    0.10120000
opls_140-133    H    0.69608010    0.74460014    0.44605115    0.10120000
opls_140-134    H    0.25539986    0.95147992    0.44605115    0.10120000
opls_140-135    H    0.30391993    0.04852008    0.55394885    0.10120000
opls_140-136    H    0.74460010    0.69608006    0.55394885    0.10120000
opls_140-137    H    0.95147997    0.25539986    0.55394885    0.10120000
opls_140-138    H    0.01379996    0.32055001    0.11113043    0.10120000
opls_140-139    H    0.67945010    0.69324995    0.11113043    0.10120000
opls_140-140    H    0.30674993    0.98620004    0.11113043    0.10120000
opls_140-141    H    0.32054990    0.01379996    0.88886957    0.10120000
opls_140-142    H    0.69324995    0.67944999    0.88886957    0.10120000
opls_140-143    H    0.98620015    0.30675005    0.88886957    0.10120000
Zn2+-144    Zn    0.49203014    0.49202998    0.50000000    0.21670000
Zn2+-145    Zn    0.50797005    0.00000000    0.50000000    0.21670000
Zn2+-146    Zn    0.00000015    0.50797002    0.50000000    0.21670000
