#======================================================================
# Crystal Data Generated By AuToFF
#----------------------------------------------------------------------

data_AuToFF_phase_1

_cell_length_a                         23.2815
_cell_length_b                         23.2815
_cell_length_c                         3.4855
_cell_angle_alpha                      90.00
_cell_angle_beta                       90.00
_cell_angle_gamma                      120.00
_symmetry_space_group_name_H-M_alt     'P 1'
_symmetry_space_group_IT_number        1

loop_
_space_group_symop_operation_xyz
   'x, y, z'

loop_
   _atom_site_label
   _atom_site_type_symbol
   _atom_site_fract_x
   _atom_site_fract_y
   _atom_site_fract_z
   _atom_site_charge
opls_700-0    C    0.26400003    0.63546994    0.50000000    0.13300000
opls_145-1    C    0.29522014    0.59737025    0.50000000    -0.16420000
opls_261-2    C    0.39656990    0.58939004    0.50000000    -0.10580000
opls_261-3    C    0.44340006    0.86684006    0.50000000    -0.10740000
opls_700-4    C    0.45554005    0.51751009    0.50000000    0.13960000
opls_145-5    C    0.41763971    0.44831982    0.50000000    -0.11050000
opls_145-6    C    0.44882993    0.41029006    0.50000000    -0.11970000
opls_700-7    C    0.51838016    0.44082020    0.50000000    0.11710000
opls_145-8    C    0.55612017    0.51073014    0.50000000    -0.12090000
opls_145-9    C    0.52473007    0.54861011    0.50000000    -0.11090000
opls_142-10    C    0.54843011    0.39755991    0.50000000    -0.16570000
opls_142-11    C    0.61386014    0.41945019    0.50000000    -0.19900000
opls_642-12    C    0.64082032    0.37418022    0.50000000    0.36420000
opls_700-13    C    0.36452969    0.62852978    0.50000000    0.13300000
opls_145-14    C    0.40262988    0.69785000    0.50000000    -0.16420000
opls_261-15    C    0.41061012    0.80717991    0.50000000    -0.10580000
opls_261-16    C    0.13315994    0.57656020    0.50000000    -0.10740000
opls_700-17    C    0.48249013    0.93803010    0.50000000    0.13960000
opls_145-18    C    0.55168020    0.96932007    0.50000000    -0.11050000
opls_145-19    C    0.58971011    0.03854011    0.50000000    -0.11970000
opls_700-20    C    0.55917980    0.07755983    0.50000000    0.11710000
opls_145-21    C    0.48927018    0.04539000    0.50000000    -0.12090000
opls_145-22    C    0.45139005    0.97611987    0.50000000    -0.11090000
opls_142-23    C    0.60244021    0.15087016    0.50000000    -0.16570000
opls_142-24    C    0.58055024    0.19441018    0.50000000    -0.19900000
opls_642-25    C    0.62581995    0.26663978    0.50000000    0.36420000
opls_700-26    C    0.37147003    0.73599979    0.50000000    0.13300000
opls_145-27    C    0.30215023    0.70478024    0.50000000    -0.16420000
opls_261-28    C    0.19281998    0.60343005    0.50000000    -0.10580000
opls_261-29    C    0.42344025    0.55660024    0.50000000    -0.10740000
opls_700-30    C    0.06196982    0.54445980    0.50000000    0.13960000
opls_145-31    C    0.03068009    0.58236011    0.50000000    -0.11050000
opls_145-32    C    0.96145996    0.55116983    0.50000000    -0.11970000
opls_700-33    C    0.92244003    0.48161997    0.50000000    0.11710000
opls_145-34    C    0.95461008    0.44387986    0.50000000    -0.12090000
opls_145-35    C    0.02387988    0.47527002    0.50000000    -0.11090000
opls_142-36    C    0.84913011    0.45156993    0.50000000    -0.16560000
opls_142-37    C    0.80558987    0.38614012    0.50000000    -0.19900000
opls_642-38    C    0.73336016    0.35918000    0.50000000    0.36670000
opls_641-39    N    0.70733008    0.39982006    0.50000000    -0.40200000
opls_641-40    N    0.60017983    0.30750998    0.50000000    -0.40200000
opls_641-41    N    0.69249008    0.29266996    0.50000000    -0.40190000
opls_146-42    H    0.26571984    0.54371981    0.50000000    0.12370000
opls_146-43    H    0.36400005    0.42385989    0.50000000    0.12510000
opls_146-44    H    0.41849022    0.35675022    0.50000000    0.12470000
opls_146-45    H    0.60958004    0.53685008    0.50000000    0.11910000
opls_146-46    H    0.55435994    0.60221988    0.50000000    0.12510000
opls_144-47    H    0.51454987    0.34446000    0.50000000    0.12560000
opls_144-48    H    0.64983003    0.47163007    0.50000000    0.10800000
opls_146-49    H    0.45627992    0.72199994    0.50000000    0.12370000
opls_146-50    H    0.57614004    0.94013997    0.50000000    0.12510000
opls_146-51    H    0.64324967    0.06173977    0.50000000    0.12470000
opls_146-52    H    0.46314981    0.07273004    0.50000000    0.11910000
opls_146-53    H    0.39777997    0.95214005    0.50000000    0.12510000
opls_144-54    H    0.65554009    0.17009012    0.50000000    0.12560000
opls_144-55    H    0.52836970    0.17819979    0.50000000    0.10800000
opls_146-56    H    0.27800025    0.73428025    0.50000000    0.12370000
opls_146-57    H    0.05985991    0.63600013    0.50000000    0.12510000
opls_146-58    H    0.93826011    0.58151001    0.50000000    0.12470000
opls_146-59    H    0.92726973    0.39041988    0.50000000    0.11910000
opls_146-60    H    0.04786009    0.44564007    0.50000000    0.12510000
opls_144-61    H    0.82991004    0.48544988    0.50000000    0.12560000
opls_144-62    H    0.82180027    0.35017014    0.50000000    0.10800000
