#======================================================================
# Crystal Data Generated By AuToFF
#----------------------------------------------------------------------

data_AuToFF_phase_1

_cell_length_a                         35.9183
_cell_length_b                         35.9183
_cell_length_c                         4.0536
_cell_angle_alpha                      90.00
_cell_angle_beta                       90.00
_cell_angle_gamma                      120.00
_symmetry_space_group_name_H-M_alt     'P 1'
_symmetry_space_group_IT_number        1

loop_
_space_group_symop_operation_xyz
   'x, y, z'

loop_
   _atom_site_label
   _atom_site_type_symbol
   _atom_site_fract_x
   _atom_site_fract_y
   _atom_site_fract_z
   _atom_site_charge
opls_590-0    C    0.76957009    0.44731011    0.32778024    -0.22880000
opls_700-1    C    0.74925012    0.40370010    0.41581064    0.02510000
opls_594-2    C    0.77381997    0.38455984    0.48639974    0.10450000
opls_593-3    C    0.81903000    0.41020010    0.51263075    -0.23920000
opls_700-4    C    0.84012997    0.45459002    0.43394020    0.05570000
opls_591-5    C    0.81461995    0.47259996    0.33771956    -0.20360000
opls_142-6    C    0.88523016    0.48076008    0.44411881    0.08950000
opls_145-7    C    0.95468998    0.48301012    0.49649941    0.17790000
opls_700-8    C    0.70614015    0.37205010    0.44850010    -0.07160000
opls_594-9    C    0.70613985    0.33281993    0.46847000    0.09780000
opls_908-10    C    0.76151006    0.31442004    0.68178903    -0.02400000
opls_135-11    C    0.79354005    0.30433007    0.49967930    -0.48850000
opls_145-12    C    0.97202010    0.45540015    0.50086096    -0.23620000
opls_145-13    C    0.01676020    0.47208013    0.50026890    -0.23630000
opls_590-14    C    0.55268999    0.32225996    0.32778024    -0.22880000
opls_700-15    C    0.59630000    0.34554988    0.41581064    0.02510000
opls_594-16    C    0.61543994    0.38925988    0.48639974    0.10450000
opls_593-17    C    0.58979986    0.40882996    0.51263075    -0.23920000
opls_700-18    C    0.54541004    0.38554003    0.43394020    0.05530000
opls_591-19    C    0.52739994    0.34202004    0.33771956    -0.20360000
opls_142-20    C    0.51924000    0.40447005    0.44411881    0.08950000
opls_145-21    C    0.51698994    0.47167989    0.49649941    0.17790000
opls_700-22    C    0.62794994    0.33409010    0.44850010    -0.07160000
opls_594-23    C    0.66717993    0.37331995    0.46847000    0.09780000
opls_908-24    C    0.68557990    0.44708990    0.68178903    -0.02400000
opls_135-25    C    0.69566998    0.48920985    0.49967930    -0.48850000
opls_145-26    C    0.54459993    0.51661986    0.50086096    -0.23620000
opls_145-27    C    0.52791997    0.54467990    0.50026890    -0.23630000
opls_590-28    C    0.67773991    0.23042992    0.32778024    -0.22880000
opls_700-29    C    0.65444988    0.25075001    0.41581064    0.02510000
opls_594-30    C    0.61073992    0.22617996    0.48639974    0.10450000
opls_593-31    C    0.59116986    0.18096994    0.51263075    -0.23920000
opls_700-32    C    0.61445999    0.15986994    0.43394020    0.05570000
opls_591-33    C    0.65798012    0.18538000    0.33771956    -0.20360000
opls_142-34    C    0.59552984    0.11476987    0.44411881    0.08950000
opls_145-35    C    0.52832008    0.04531000    0.49649941    0.17790000
opls_700-36    C    0.66591008    0.29386012    0.44850010    -0.07160000
opls_594-37    C    0.62667994    0.29386012    0.46847000    0.09780000
opls_908-38    C    0.55291004    0.23849006    0.68178903    -0.02400000
opls_135-39    C    0.51078997    0.20646007    0.49967930    -0.48850000
opls_145-40    C    0.48337997    0.02797999    0.50086096    -0.23620000
opls_145-41    C    0.45532011    0.98323998    0.50026890    -0.23630000
opls_590-42    C    0.23042991    0.55268989    0.32778024    -0.22880000
opls_700-43    C    0.25074988    0.59629990    0.41581064    0.02510000
opls_594-44    C    0.22618003    0.61544016    0.48639974    0.10450000
opls_593-45    C    0.18097000    0.58979990    0.51263075    -0.23920000
opls_700-46    C    0.15987003    0.54540998    0.43394020    0.05570000
opls_591-47    C    0.18538005    0.52740004    0.33771956    -0.20360000
opls_142-48    C    0.11476984    0.51923992    0.44411881    0.08950000
opls_145-49    C    0.04531002    0.51698988    0.49649941    0.17790000
opls_700-50    C    0.29385985    0.62794990    0.44850010    -0.07160000
opls_594-51    C    0.29386015    0.66718007    0.46847000    0.09780000
opls_908-52    C    0.23848994    0.68557996    0.68178903    -0.02400000
opls_135-53    C    0.20645995    0.69566993    0.49967930    -0.48850000
opls_145-54    C    0.02797990    0.54459985    0.50086096    -0.23620000
opls_145-55    C    0.98323980    0.52791987    0.50026890    -0.23630000
opls_590-56    C    0.44731001    0.67774004    0.32778024    -0.22880000
opls_700-57    C    0.40370000    0.65445012    0.41581064    0.02510000
opls_594-58    C    0.38456006    0.61074012    0.48639974    0.10450000
opls_593-59    C    0.41020014    0.59117004    0.51263075    -0.23910000
opls_700-60    C    0.45458996    0.61445997    0.43394020    0.05530000
opls_591-61    C    0.47260006    0.65797996    0.33771956    -0.20360000
opls_142-62    C    0.48076000    0.59552995    0.44411881    0.08950000
opls_145-63    C    0.48301006    0.52832011    0.49649941    0.17790000
opls_700-64    C    0.37205006    0.66590990    0.44850010    -0.07160000
opls_594-65    C    0.33282007    0.62668005    0.46847000    0.09780000
opls_908-66    C    0.31442010    0.55291010    0.68178903    -0.02400000
opls_135-67    C    0.30433002    0.51079015    0.49967930    -0.48840000
opls_145-68    C    0.45540007    0.48338014    0.50086096    -0.23610000
opls_145-69    C    0.47208003    0.45532010    0.50026890    -0.23630000
opls_590-70    C    0.32226009    0.76957008    0.32778024    -0.22880000
opls_700-71    C    0.34555012    0.74924999    0.41581064    0.02510000
opls_594-72    C    0.38926008    0.77382004    0.48639974    0.10450000
opls_593-73    C    0.40883014    0.81903006    0.51263075    -0.23920000
opls_700-74    C    0.38554001    0.84013006    0.43394020    0.05570000
opls_591-75    C    0.34201988    0.81462000    0.33771956    -0.20360000
opls_142-76    C    0.40447016    0.88523013    0.44411881    0.08950000
opls_145-77    C    0.47167992    0.95469000    0.49649941    0.17790000
opls_700-78    C    0.33408992    0.70613988    0.44850010    -0.07160000
opls_594-79    C    0.37332006    0.70613988    0.46847000    0.09780000
opls_908-80    C    0.44708996    0.76150994    0.68178903    -0.02400000
opls_135-81    C    0.48921003    0.79353993    0.49967930    -0.48850000
opls_145-82    C    0.51662003    0.97202001    0.50086096    -0.23610000
opls_145-83    C    0.54467989    0.01676002    0.50026890    -0.23630000
opls_750-84    N    0.91126996    0.46399009    0.48600997    -0.34800000
opls_542-85    N    0.74731990    0.34174003    0.53171008    -0.01780000
opls_750-86    N    0.53600997    0.44727990    0.48600997    -0.34810000
opls_542-87    N    0.65826011    0.40558012    0.53171008    -0.01780000
opls_750-88    N    0.55272008    0.08873001    0.48600997    -0.34820000
opls_542-89    N    0.59441999    0.25267986    0.53171008    -0.01780000
opls_750-90    N    0.08873004    0.53600991    0.48600997    -0.34820000
opls_542-91    N    0.25268010    0.65825997    0.53171008    -0.01780000
opls_750-92    N    0.46399003    0.55272010    0.48600997    -0.34810000
opls_542-93    N    0.34173989    0.59441988    0.53171008    -0.01780000
opls_750-94    N    0.44727992    0.91126999    0.48600997    -0.34820000
opls_542-95    N    0.40558001    0.74732014    0.53171008    -0.01780000
opls_602-96    H    0.83664008    0.39678990    0.59005082    0.19610000
opls_600-97    H    0.82858003    0.50434994    0.27308072    0.19600000
opls_599-98    H    0.75222997    0.46070007    0.25178113    0.19520000
opls_140-99    H    0.73417992    0.28430992    0.76081014    0.08920000
opls_140-100    H    0.77746010    0.33082997    0.90865897    0.08250000
opls_140-101    H    0.80644997    0.29057010    0.67462996    0.10590000
opls_140-102    H    0.82045985    0.33281993    0.39295934    0.09600000
opls_140-103    H    0.77822005    0.28105012    0.30328103    0.09540000
opls_144-104    H    0.89853991    0.51318999    0.41202881    0.09560000
opls_146-105    H    0.95207992    0.42274006    0.50208950    0.19590000
opls_146-106    H    0.02803988    0.45102996    0.50206977    0.19590000
opls_602-107    H    0.60321005    0.43984986    0.59005082    0.19610000
opls_600-108    H    0.49564999    0.32422999    0.27308072    0.19590000
opls_599-109    H    0.53930007    0.29153004    0.25178113    0.19530000
opls_140-110    H    0.71569016    0.44987006    0.76081014    0.08920000
opls_140-111    H    0.66916983    0.44662986    0.90865897    0.08250000
opls_140-112    H    0.70942998    0.51588013    0.67462996    0.10590000
opls_140-113    H    0.66717999    0.48764007    0.39295934    0.09600000
opls_140-114    H    0.71894997    0.49717001    0.30328103    0.09540000
opls_144-115    H    0.48681004    0.38535004    0.41202881    0.09560000
opls_146-116    H    0.57725989    0.52933985    0.50208950    0.19590000
opls_146-117    H    0.54897007    0.57701015    0.50206977    0.19590000
opls_602-118    H    0.56014999    0.16335993    0.59005082    0.19610000
opls_600-119    H    0.67576997    0.17142007    0.27308072    0.19590000
opls_599-120    H    0.70846996    0.24776990    0.25178113    0.19520000
opls_140-121    H    0.55012992    0.26582002    0.76081014    0.08920000
opls_140-122    H    0.55336991    0.22253984    0.90865897    0.08250000
opls_140-123    H    0.48411993    0.19355009    0.67462996    0.10590000
opls_140-124    H    0.51235988    0.17954000    0.39295934    0.09610000
opls_140-125    H    0.50282997    0.22177987    0.30328103    0.09540000
opls_144-126    H    0.61465005    0.10145997    0.41202881    0.09560000
opls_146-127    H    0.47065992    0.04792009    0.50208950    0.19590000
opls_146-128    H    0.42299005    0.97195989    0.50206977    0.19590000
opls_602-129    H    0.16335992    0.60321010    0.59005082    0.19610000
opls_600-130    H    0.17141997    0.49565006    0.27308072    0.19590000
opls_599-131    H    0.24777003    0.53929993    0.25178113    0.19520000
opls_140-132    H    0.26582008    0.71569008    0.76081014    0.08920000
opls_140-133    H    0.22253990    0.66917003    0.90865897    0.08250000
opls_140-134    H    0.19355003    0.70942990    0.67462996    0.10590000
opls_140-135    H    0.17954015    0.66718007    0.39295934    0.09600000
opls_140-136    H    0.22177995    0.71894988    0.30328103    0.09540000
opls_144-137    H    0.10146009    0.48681001    0.41202881    0.09560000
opls_146-138    H    0.04792008    0.57725994    0.50208950    0.19590000
opls_146-139    H    0.97196012    0.54897004    0.50206977    0.19590000
opls_602-140    H    0.39678995    0.56015014    0.59005082    0.19610000
opls_600-141    H    0.50435001    0.67577001    0.27308072    0.19600000
opls_599-142    H    0.46069993    0.70846996    0.25178113    0.19520000
opls_140-143    H    0.28430984    0.55012994    0.76081014    0.08920000
opls_140-144    H    0.33083017    0.55337014    0.90865897    0.08250000
opls_140-145    H    0.29057002    0.48411987    0.67462996    0.10590000
opls_140-146    H    0.33282001    0.51235993    0.39295934    0.09600000
opls_140-147    H    0.28105003    0.50282999    0.30328103    0.09540000
opls_144-148    H    0.51318996    0.61464996    0.41202881    0.09560000
opls_146-149    H    0.42274011    0.47066015    0.50208950    0.19600000
opls_146-150    H    0.45102993    0.42298985    0.50206977    0.19590000
opls_602-151    H    0.43985001    0.83664007    0.59005082    0.19610000
opls_600-152    H    0.32423003    0.82857993    0.27308072    0.19590000
opls_599-153    H    0.29153004    0.75223010    0.25178113    0.19520000
opls_140-154    H    0.44987008    0.73417998    0.76081014    0.08930000
opls_140-155    H    0.44663009    0.77746016    0.90865897    0.08250000
opls_140-156    H    0.51588007    0.80644991    0.67462996    0.10590000
opls_140-157    H    0.48764012    0.82046000    0.39295934    0.09600000
opls_140-158    H    0.49717003    0.77822013    0.30328103    0.09540000
opls_144-159    H    0.38534995    0.89854003    0.41202881    0.09560000
opls_146-160    H    0.52934008    0.95207991    0.50208950    0.19590000
opls_146-161    H    0.57700995    0.02804011    0.50206977    0.19590000
