#======================================================================
# Crystal Data Generated By AuToFF
#----------------------------------------------------------------------

data_AuToFF_phase_1

_cell_length_a                         42.3000
_cell_length_b                         36.9000
_cell_length_c                         4.4000
_cell_angle_alpha                      90.00
_cell_angle_beta                       90.00
_cell_angle_gamma                      90.00
_symmetry_space_group_name_H-M_alt     'P 1'
_symmetry_space_group_IT_number        1

loop_
_space_group_symop_operation_xyz
   'x, y, z'

loop_
   _atom_site_label
   _atom_site_type_symbol
   _atom_site_fract_x
   _atom_site_fract_y
   _atom_site_fract_z
   _atom_site_charge
opls_750-0    N    0.35310000    0.34660000    0.17540000    -0.27030000
opls_750-1    N    0.85310000    0.84660000    0.17540000    -0.27020000
opls_750-2    N    0.64690000    0.34660000    0.82460000    -0.27030000
opls_750-3    N    0.14690000    0.84660000    0.82460000    -0.27030000
opls_750-4    N    0.64690000    0.65340000    0.82460000    -0.27020000
opls_750-5    N    0.14690000    0.15340000    0.82460000    -0.27020000
opls_750-6    N    0.35310000    0.65340000    0.17540000    -0.27030000
opls_750-7    N    0.85310000    0.15340000    0.17540000    -0.27030000
opls_700-8    C    0.43710000    0.46700000    0.27130000    0.04200000
opls_700-9    C    0.46870000    0.46660000    0.38030000    0.02670000
opls_145-10    C    0.48460000    0.43400000    0.44300000    -0.07130000
opls_700-11    C    0.41680000    0.43460000    0.25120000    0.08720000
opls_145-12    C    0.42380000    0.40580000    0.05050000    -0.07550000
opls_145-13    C    0.40310000    0.37620000    0.02760000    -0.12740000
opls_145-14    C    0.37530000    0.37550000    0.20450000    0.23760000
opls_145-15    C    0.36830000    0.40420000    0.40300000    -0.10600000
opls_145-16    C    0.38870000    0.43360000    0.42600000    -0.07340000
opls_142-17    C    0.34830000    0.32410000    0.40040000    0.01760000
opls_700-18    C    0.32030000    0.30040000    0.40100000    0.09470000
opls_145-19    C    0.29330000    0.30940000    0.22890000    -0.07320000
opls_145-20    C    0.31900000    0.27070000    0.60150000    -0.10260000
opls_145-21    C    0.26550000    0.28940000    0.26510000    -0.07320000
opls_700-22    C    0.26480000    0.26040000    0.47390000    0.08470000
opls_145-23    C    0.29170000    0.25170000    0.63280000    -0.09700000
opls_700-24    C    0.93710000    0.96700000    0.27130000    0.04200000
opls_700-25    C    0.96870000    0.96660000    0.38030000    0.02670000
opls_145-26    C    0.98460000    0.93400000    0.44300000    -0.07130000
opls_700-27    C    0.91680000    0.93460000    0.25120000    0.08720000
opls_145-28    C    0.92380000    0.90580000    0.05050000    -0.07550000
opls_145-29    C    0.90310000    0.87620000    0.02760000    -0.12740000
opls_145-30    C    0.87530000    0.87550000    0.20450000    0.23760000
opls_145-31    C    0.86830000    0.90420000    0.40300000    -0.10600000
opls_145-32    C    0.88870000    0.93360000    0.42600000    -0.07340000
opls_142-33    C    0.84830000    0.82410000    0.40040000    0.01760000
opls_700-34    C    0.82030000    0.80040000    0.40100000    0.09470000
opls_145-35    C    0.79330000    0.80940000    0.22890000    -0.07320000
opls_145-36    C    0.81900000    0.77070000    0.60150000    -0.10260000
opls_145-37    C    0.76550000    0.78940000    0.26510000    -0.07320000
opls_700-38    C    0.76480000    0.76040000    0.47390000    0.08470000
opls_145-39    C    0.79170000    0.75170000    0.63280000    -0.09700000
opls_700-40    C    0.56290000    0.46700000    0.72870000    0.04200000
opls_700-41    C    0.53130000    0.46660000    0.61970000    0.02670000
opls_145-42    C    0.51540000    0.43400000    0.55700000    -0.07130000
opls_700-43    C    0.58320000    0.43460000    0.74880000    0.08720000
opls_145-44    C    0.57620000    0.40580000    0.94950000    -0.07550000
opls_145-45    C    0.59690000    0.37620000    0.97240000    -0.12740000
opls_145-46    C    0.62470000    0.37550000    0.79550000    0.23760000
opls_145-47    C    0.63170000    0.40420000    0.59700000    -0.10600000
opls_145-48    C    0.61130000    0.43360000    0.57400000    -0.07340000
opls_142-49    C    0.65170000    0.32410000    0.59960000    0.01760000
opls_700-50    C    0.67970000    0.30040000    0.59900000    0.09470000
opls_145-51    C    0.70670000    0.30940000    0.77110000    -0.07320000
opls_145-52    C    0.68100000    0.27070000    0.39850000    -0.10260000
opls_145-53    C    0.73450000    0.28940000    0.73490000    -0.07320000
opls_700-54    C    0.73520000    0.26040000    0.52610000    0.08470000
opls_145-55    C    0.70830000    0.25170000    0.36720000    -0.09700000
opls_700-56    C    0.06290000    0.96700000    0.72870000    0.04200000
opls_700-57    C    0.03130000    0.96660000    0.61970000    0.02670000
opls_145-58    C    0.01540000    0.93400000    0.55700000    -0.07130000
opls_700-59    C    0.08320000    0.93460000    0.74880000    0.08720000
opls_145-60    C    0.07620000    0.90580000    0.94950000    -0.07550000
opls_145-61    C    0.09690000    0.87620000    0.97240000    -0.12740000
opls_145-62    C    0.12470000    0.87550000    0.79550000    0.23770000
opls_145-63    C    0.13170000    0.90420000    0.59700000    -0.10600000
opls_145-64    C    0.11130000    0.93360000    0.57400000    -0.07340000
opls_142-65    C    0.15170000    0.82410000    0.59960000    0.01760000
opls_700-66    C    0.17970000    0.80040000    0.59900000    0.09470000
opls_145-67    C    0.20670000    0.80940000    0.77110000    -0.07320000
opls_145-68    C    0.18100000    0.77070000    0.39850000    -0.10260000
opls_145-69    C    0.23450000    0.78940000    0.73490000    -0.07310000
opls_700-70    C    0.23520000    0.76040000    0.52610000    0.08470000
opls_145-71    C    0.20830000    0.75170000    0.36720000    -0.09700000
opls_700-72    C    0.56290000    0.53300000    0.72870000    0.04200000
opls_700-73    C    0.53130000    0.53340000    0.61970000    0.02680000
opls_145-74    C    0.51540000    0.56600000    0.55700000    -0.07130000
opls_700-75    C    0.58320000    0.56540000    0.74880000    0.08720000
opls_145-76    C    0.57620000    0.59420000    0.94950000    -0.07550000
opls_145-77    C    0.59690000    0.62380000    0.97240000    -0.12740000
opls_145-78    C    0.62470000    0.62450000    0.79550000    0.23770000
opls_145-79    C    0.63170000    0.59580000    0.59700000    -0.10600000
opls_145-80    C    0.61130000    0.56640000    0.57400000    -0.07340000
opls_142-81    C    0.65170000    0.67590000    0.59960000    0.01760000
opls_700-82    C    0.67970000    0.69960000    0.59900000    0.09470000
opls_145-83    C    0.70670000    0.69060000    0.77110000    -0.07320000
opls_145-84    C    0.68100000    0.72930000    0.39850000    -0.10260000
opls_145-85    C    0.73450000    0.71060000    0.73490000    -0.07320000
opls_700-86    C    0.73520000    0.73960000    0.52610000    0.08470000
opls_145-87    C    0.70830000    0.74830000    0.36720000    -0.09700000
opls_700-88    C    0.06290000    0.03300000    0.72870000    0.04200000
opls_700-89    C    0.03130000    0.03340000    0.61970000    0.02670000
opls_145-90    C    0.01540000    0.06600000    0.55700000    -0.07130000
opls_700-91    C    0.08320000    0.06540000    0.74880000    0.08720000
opls_145-92    C    0.07620000    0.09420000    0.94950000    -0.07540000
opls_145-93    C    0.09690000    0.12380000    0.97240000    -0.12740000
opls_145-94    C    0.12470000    0.12450000    0.79550000    0.23780000
opls_145-95    C    0.13170000    0.09580000    0.59700000    -0.10600000
opls_145-96    C    0.11130000    0.06640000    0.57400000    -0.07340000
opls_142-97    C    0.15170000    0.17590000    0.59960000    0.01760000
opls_700-98    C    0.17970000    0.19960000    0.59900000    0.09470000
opls_145-99    C    0.20670000    0.19060000    0.77110000    -0.07310000
opls_145-100    C    0.18100000    0.22930000    0.39850000    -0.10260000
opls_145-101    C    0.23450000    0.21060000    0.73490000    -0.07320000
opls_700-102    C    0.23520000    0.23960000    0.52610000    0.08470000
opls_145-103    C    0.20830000    0.24830000    0.36720000    -0.09700000
opls_700-104    C    0.43710000    0.53300000    0.27130000    0.04200000
opls_700-105    C    0.46870000    0.53340000    0.38030000    0.02670000
opls_145-106    C    0.48460000    0.56600000    0.44300000    -0.07130000
opls_700-107    C    0.41680000    0.56540000    0.25120000    0.08730000
opls_145-108    C    0.42380000    0.59420000    0.05050000    -0.07550000
opls_145-109    C    0.40310000    0.62380000    0.02760000    -0.12740000
opls_145-110    C    0.37530000    0.62450000    0.20450000    0.23760000
opls_145-111    C    0.36830000    0.59580000    0.40300000    -0.10600000
opls_145-112    C    0.38870000    0.56640000    0.42600000    -0.07340000
opls_142-113    C    0.34830000    0.67590000    0.40040000    0.01760000
opls_700-114    C    0.32030000    0.69960000    0.40100000    0.09470000
opls_145-115    C    0.29330000    0.69060000    0.22890000    -0.07310000
opls_145-116    C    0.31900000    0.72930000    0.60150000    -0.10260000
opls_145-117    C    0.26550000    0.71060000    0.26510000    -0.07320000
opls_700-118    C    0.26480000    0.73960000    0.47390000    0.08470000
opls_145-119    C    0.29170000    0.74830000    0.63280000    -0.09700000
opls_700-120    C    0.93710000    0.03300000    0.27130000    0.04200000
opls_700-121    C    0.96870000    0.03340000    0.38030000    0.02670000
opls_145-122    C    0.98460000    0.06600000    0.44300000    -0.07130000
opls_700-123    C    0.91680000    0.06540000    0.25120000    0.08720000
opls_145-124    C    0.92380000    0.09420000    0.05050000    -0.07550000
opls_145-125    C    0.90310000    0.12380000    0.02760000    -0.12740000
opls_145-126    C    0.87530000    0.12450000    0.20450000    0.23760000
opls_145-127    C    0.86830000    0.09580000    0.40300000    -0.10600000
opls_145-128    C    0.88870000    0.06640000    0.42600000    -0.07330000
opls_142-129    C    0.84830000    0.17590000    0.40040000    0.01760000
opls_700-130    C    0.82030000    0.19960000    0.40100000    0.09470000
opls_145-131    C    0.79330000    0.19060000    0.22890000    -0.07320000
opls_145-132    C    0.81900000    0.22930000    0.60150000    -0.10260000
opls_145-133    C    0.76550000    0.21060000    0.26510000    -0.07320000
opls_700-134    C    0.76480000    0.23960000    0.47390000    0.08470000
opls_145-135    C    0.79170000    0.24830000    0.63280000    -0.09700000
opls_145-136    C    0.42210000    0.50000000    0.22090000    -0.07460000
opls_700-137    C    0.48440000    0.50000000    0.43800000    -0.00440000
opls_145-138    C    0.92210000    0.00000000    0.22090000    -0.07460000
opls_700-139    C    0.98440000    0.00000000    0.43800000    -0.00440000
opls_145-140    C    0.57790000    0.50000000    0.77910000    -0.07460000
opls_700-141    C    0.51560000    0.50000000    0.56200000    -0.00440000
opls_145-142    C    0.07790000    0.00000000    0.77910000    -0.07460000
opls_700-143    C    0.01560000    0.00000000    0.56200000    -0.00440000
opls_146-144    H    0.47235012    0.40695014    0.40085000    0.05140000
opls_146-145    H    0.44624988    0.40662005    0.90730909    0.05140000
opls_146-146    H    0.40879007    0.35288997    0.86664091    0.05140000
opls_146-147    H    0.34583002    0.40343008    0.54589091    0.05140000
opls_146-148    H    0.38283002    0.45696992    0.58579091    0.05160000
opls_144-149    H    0.36583002    0.32278997    0.59692045    0.03030000
opls_146-150    H    0.29420000    0.33291003    0.06104091    0.05140000
opls_146-151    H    0.34084988    0.26263008    0.73729091    0.05140000
opls_146-152    H    0.24360993    0.29656992    0.12642955    0.05140000
opls_146-153    H    0.29156998    0.22784011    0.79740909    0.05150000
opls_146-154    H    0.97235012    0.90695014    0.40085000    0.05140000
opls_146-155    H    0.94625012    0.90662005    0.90730909    0.05150000
opls_146-156    H    0.90879007    0.85288997    0.86664091    0.05140000
opls_146-157    H    0.84583002    0.90343008    0.54589091    0.05140000
opls_146-158    H    0.88283002    0.95696992    0.58579091    0.05140000
opls_144-159    H    0.86583002    0.82278997    0.59692045    0.03030000
opls_146-160    H    0.79420000    0.83291003    0.06104091    0.05140000
opls_146-161    H    0.84084988    0.76263008    0.73729091    0.05140000
opls_146-162    H    0.74360993    0.79656992    0.12642955    0.05140000
opls_146-163    H    0.79156998    0.72784011    0.79740909    0.05140000
opls_146-164    H    0.52764988    0.40695014    0.59915000    0.05140000
opls_146-165    H    0.55375012    0.40662005    0.09269091    0.05140000
opls_146-166    H    0.59120993    0.35288997    0.13335909    0.05140000
opls_146-167    H    0.65416998    0.40343008    0.45410909    0.05150000
opls_146-168    H    0.61716998    0.45696992    0.41420909    0.05140000
opls_144-169    H    0.63416998    0.32278997    0.40307955    0.03030000
opls_146-170    H    0.70580000    0.33291003    0.93895909    0.05140000
opls_146-171    H    0.65915012    0.26263008    0.26270909    0.05140000
opls_146-172    H    0.75639007    0.29656992    0.87357045    0.05140000
opls_146-173    H    0.70843002    0.22784011    0.20259091    0.05140000
opls_146-174    H    0.02764988    0.90695014    0.59915000    0.05140000
opls_146-175    H    0.05375012    0.90662005    0.09269091    0.05140000
opls_146-176    H    0.09120993    0.85288997    0.13335909    0.05140000
opls_146-177    H    0.15416998    0.90343008    0.45410909    0.05140000
opls_146-178    H    0.11716998    0.95696992    0.41420909    0.05140000
opls_144-179    H    0.13416998    0.82278997    0.40307955    0.03030000
opls_146-180    H    0.20580000    0.83291003    0.93895909    0.05140000
opls_146-181    H    0.15915012    0.76263008    0.26270909    0.05150000
opls_146-182    H    0.25639007    0.79656992    0.87357045    0.05140000
opls_146-183    H    0.20843002    0.72784011    0.20259091    0.05140000
opls_146-184    H    0.52764988    0.59305014    0.59915000    0.05140000
opls_146-185    H    0.55375012    0.59337995    0.09269091    0.05140000
opls_146-186    H    0.59120993    0.64711003    0.13335909    0.05140000
opls_146-187    H    0.65416998    0.59656992    0.45410909    0.05140000
opls_146-188    H    0.61716998    0.54303008    0.41420909    0.05150000
opls_144-189    H    0.63416998    0.67721003    0.40307955    0.03030000
opls_146-190    H    0.70580000    0.66708997    0.93895909    0.05140000
opls_146-191    H    0.65915012    0.73736992    0.26270909    0.05140000
opls_146-192    H    0.75639007    0.70343008    0.87357045    0.05140000
opls_146-193    H    0.70843002    0.77215989    0.20259091    0.05140000
opls_146-194    H    0.02764988    0.09305014    0.59915000    0.05140000
opls_146-195    H    0.05375012    0.09337995    0.09269091    0.05140000
opls_146-196    H    0.09120993    0.14711003    0.13335909    0.05140000
opls_146-197    H    0.15416998    0.09656992    0.45410909    0.05140000
opls_146-198    H    0.11716998    0.04303008    0.41420909    0.05140000
opls_144-199    H    0.13416998    0.17721003    0.40307955    0.03030000
opls_146-200    H    0.20580000    0.16708997    0.93895909    0.05140000
opls_146-201    H    0.15915012    0.23736992    0.26270909    0.05150000
opls_146-202    H    0.25639007    0.20343008    0.87357045    0.05140000
opls_146-203    H    0.20843002    0.27215989    0.20259091    0.05140000
opls_146-204    H    0.47235012    0.59305014    0.40085000    0.05140000
opls_146-205    H    0.44624988    0.59337995    0.90730909    0.05140000
opls_146-206    H    0.40879007    0.64711003    0.86664091    0.05140000
opls_146-207    H    0.34583002    0.59656992    0.54589091    0.05140000
opls_146-208    H    0.38283002    0.54303008    0.58579091    0.05140000
opls_144-209    H    0.36583002    0.67721003    0.59692045    0.03030000
opls_146-210    H    0.29420000    0.66708997    0.06104091    0.05140000
opls_146-211    H    0.34084988    0.73736992    0.73729091    0.05140000
opls_146-212    H    0.24360993    0.70343008    0.12642955    0.05140000
opls_146-213    H    0.29156998    0.77215989    0.79740909    0.05140000
opls_146-214    H    0.97235012    0.09305014    0.40085000    0.05140000
opls_146-215    H    0.94625012    0.09337995    0.90730909    0.05150000
opls_146-216    H    0.90879007    0.14711003    0.86664091    0.05140000
opls_146-217    H    0.84583002    0.09656992    0.54589091    0.05140000
opls_146-218    H    0.88283002    0.04303008    0.58579091    0.05140000
opls_144-219    H    0.86583002    0.17721003    0.59692045    0.03030000
opls_146-220    H    0.79420000    0.16708997    0.06104091    0.05150000
opls_146-221    H    0.84084988    0.23736992    0.73729091    0.05140000
opls_146-222    H    0.74360993    0.20343008    0.12642955    0.05140000
opls_146-223    H    0.79156998    0.27215989    0.79740909    0.05140000
opls_146-224    H    0.39666005    0.50058997    0.13542955    0.05140000
opls_146-225    H    0.89666005    0.00058997    0.13542955    0.05140000
opls_146-226    H    0.60333995    0.50058997    0.86457045    0.05140000
opls_146-227    H    0.10333995    0.00058997    0.86457045    0.05140000
