#======================================================================
# Crystal Data Generated By AuToFF
#----------------------------------------------------------------------

data_AuToFF_phase_1

_cell_length_a                         34.4632
_cell_length_b                         35.4951
_cell_length_c                         3.7199
_cell_angle_alpha                      90.00
_cell_angle_beta                       104.57
_cell_angle_gamma                      90.00
_symmetry_space_group_name_H-M_alt     'P 1'
_symmetry_space_group_IT_number        1

loop_
_space_group_symop_operation_xyz
   'x, y, z'

loop_
   _atom_site_label
   _atom_site_type_symbol
   _atom_site_fract_x
   _atom_site_fract_y
   _atom_site_fract_z
   _atom_site_charge
opls_700-0    C    0.03464997    0.91991007    0.47139111    0.03340000
opls_700-1    C    0.03392005    0.95978994    0.44609030    0.02100000
opls_145-2    C    0.06520005    0.98089004    0.35065884    -0.11800000
opls_700-3    C    0.92904020    0.89693000    0.52510083    0.06510000
opls_145-4    C    0.93256008    0.86166006    0.69997056    -0.11990000
opls_145-5    C    0.89946019    0.83918992    0.68483007    -0.12140000
opls_700-6    C    0.86104991    0.85128990    0.49523926    0.10600000
opls_145-7    C    0.85730013    0.88671000    0.32321931    -0.11930000
opls_145-8    C    0.89060992    0.90866007    0.33097981    -0.11930000
opls_142-9    C    0.17516007    0.82914008    0.51454054    -0.09700000
opls_700-10    C    0.78444997    0.77032999    0.47684902    0.06430000
opls_145-11    C    0.74651006    0.78725007    0.38317020    -0.11990000
opls_145-12    C    0.71279004    0.76736986    0.40727943    -0.11990000
opls_141-13    C    0.67855004    0.70890010    0.53756930    -0.00190000
opls_423-14    C    0.64573004    0.26808996    0.58542113    0.23290000
opls_700-15    C    0.53464997    0.41991007    0.47139111    0.03340000
opls_700-16    C    0.53392005    0.45978994    0.44609030    0.02110000
opls_145-17    C    0.56520005    0.48089004    0.35065884    -0.11800000
opls_700-18    C    0.42904020    0.39693000    0.52510083    0.06510000
opls_145-19    C    0.43256008    0.36166006    0.69997056    -0.11990000
opls_145-20    C    0.39946019    0.33918992    0.68483007    -0.12140000
opls_700-21    C    0.36104991    0.35128990    0.49523926    0.10600000
opls_145-22    C    0.35730013    0.38671000    0.32321931    -0.11930000
opls_145-23    C    0.39060992    0.40866007    0.33097981    -0.11930000
opls_142-24    C    0.67516007    0.32914008    0.51454054    -0.09700000
opls_700-25    C    0.28444997    0.27032999    0.47684902    0.06430000
opls_145-26    C    0.24651006    0.28725007    0.38317020    -0.11980000
opls_145-27    C    0.21279004    0.26736986    0.40727943    -0.11990000
opls_141-28    C    0.17855004    0.20890010    0.53756930    -0.00190000
opls_423-29    C    0.14573004    0.76808996    0.58542113    0.23290000
opls_700-30    C    0.96535003    0.91991007    0.52860889    0.03340000
opls_700-31    C    0.96607995    0.95978994    0.55390970    0.02100000
opls_145-32    C    0.93480024    0.98089004    0.64934116    -0.11790000
opls_700-33    C    0.07096009    0.89693000    0.47489917    0.06510000
opls_145-34    C    0.06743992    0.86166006    0.30002944    -0.11990000
opls_145-35    C    0.10054010    0.83918992    0.31516993    -0.12150000
opls_700-36    C    0.13895009    0.85128990    0.50476074    0.10600000
opls_145-37    C    0.14270016    0.88671000    0.67678069    -0.11930000
opls_145-38    C    0.10939008    0.90866007    0.66902019    -0.11930000
opls_142-39    C    0.82483993    0.82914008    0.48545946    -0.09700000
opls_700-40    C    0.21555003    0.77032999    0.52315098    0.06430000
opls_145-41    C    0.25348994    0.78725007    0.61682980    -0.11990000
opls_145-42    C    0.28720996    0.76736986    0.59272057    -0.11990000
opls_141-43    C    0.32144996    0.70890010    0.46243070    -0.00190000
opls_423-44    C    0.35426996    0.26808996    0.41457887    0.23290000
opls_700-45    C    0.46535003    0.41991007    0.52860889    0.03340000
opls_700-46    C    0.46607995    0.45978994    0.55390970    0.02100000
opls_145-47    C    0.43480024    0.48089004    0.64934116    -0.11800000
opls_700-48    C    0.57096009    0.39693000    0.47489917    0.06510000
opls_145-49    C    0.56743992    0.36166006    0.30002944    -0.11990000
opls_145-50    C    0.60054010    0.33918992    0.31516993    -0.12150000
opls_700-51    C    0.63895009    0.35128990    0.50476074    0.10600000
opls_145-52    C    0.64270016    0.38671000    0.67678069    -0.11930000
opls_145-53    C    0.60939008    0.40866007    0.66902019    -0.11930000
opls_142-54    C    0.32483993    0.32914008    0.48545946    -0.09700000
opls_700-55    C    0.71555003    0.27032999    0.52315098    0.06430000
opls_145-56    C    0.75348994    0.28725007    0.61682980    -0.11990000
opls_145-57    C    0.78720996    0.26736986    0.59272057    -0.11990000
opls_141-58    C    0.82144996    0.20890010    0.46243070    -0.00190000
opls_423-59    C    0.85426996    0.76808996    0.41457887    0.23290000
opls_700-60    C    0.96535003    0.08008993    0.52860889    0.03340000
opls_700-61    C    0.96607995    0.04021006    0.55390970    0.02100000
opls_145-62    C    0.93480024    0.01910996    0.64934116    -0.11800000
opls_700-63    C    0.07096009    0.10307000    0.47489917    0.06510000
opls_145-64    C    0.06743992    0.13833994    0.30002944    -0.11990000
opls_145-65    C    0.10054010    0.16081008    0.31516993    -0.12150000
opls_700-66    C    0.13895009    0.14871010    0.50476074    0.10600000
opls_145-67    C    0.14270016    0.11329000    0.67678069    -0.11930000
opls_145-68    C    0.10939008    0.09133993    0.66902019    -0.11930000
opls_142-69    C    0.82483993    0.17085992    0.48545946    -0.09700000
opls_700-70    C    0.21555003    0.22967001    0.52315098    0.06430000
opls_145-71    C    0.25348994    0.21274993    0.61682980    -0.11990000
opls_145-72    C    0.28720996    0.23263014    0.59272057    -0.11990000
opls_141-73    C    0.32144996    0.29109990    0.46243070    -0.00190000
opls_423-74    C    0.35426996    0.73191004    0.41457887    0.23290000
opls_700-75    C    0.46535003    0.58008993    0.52860889    0.03340000
opls_700-76    C    0.46607995    0.54021006    0.55390970    0.02100000
opls_145-77    C    0.43480024    0.51910996    0.64934116    -0.11800000
opls_700-78    C    0.57096009    0.60307000    0.47489917    0.06510000
opls_145-79    C    0.56743992    0.63833994    0.30002944    -0.11990000
opls_145-80    C    0.60054010    0.66081008    0.31516993    -0.12150000
opls_700-81    C    0.63895009    0.64871010    0.50476074    0.10600000
opls_145-82    C    0.64270016    0.61329000    0.67678069    -0.11930000
opls_145-83    C    0.60939008    0.59133993    0.66902019    -0.11920000
opls_142-84    C    0.32483993    0.67085992    0.48545946    -0.09700000
opls_700-85    C    0.71555003    0.72967001    0.52315098    0.06430000
opls_145-86    C    0.75348994    0.71274993    0.61682980    -0.11990000
opls_145-87    C    0.78720996    0.73263014    0.59272057    -0.11990000
opls_141-88    C    0.82144996    0.79109990    0.46243070    -0.00190000
opls_423-89    C    0.85426996    0.23191004    0.41457887    0.23290000
opls_700-90    C    0.03464997    0.08008993    0.47139111    0.03340000
opls_700-91    C    0.03392005    0.04021006    0.44609030    0.02100000
opls_145-92    C    0.06520005    0.01910996    0.35065884    -0.11790000
opls_700-93    C    0.92904020    0.10307000    0.52510083    0.06510000
opls_145-94    C    0.93256008    0.13833994    0.69997056    -0.11990000
opls_145-95    C    0.89946019    0.16081008    0.68483007    -0.12140000
opls_700-96    C    0.86104991    0.14871010    0.49523926    0.10600000
opls_145-97    C    0.85730013    0.11329000    0.32321931    -0.11930000
opls_145-98    C    0.89060992    0.09133993    0.33097981    -0.11930000
opls_142-99    C    0.17516007    0.17085992    0.51454054    -0.09700000
opls_700-100    C    0.78444997    0.22967001    0.47684902    0.06440000
opls_145-101    C    0.74651006    0.21274993    0.38317020    -0.11990000
opls_145-102    C    0.71279004    0.23263014    0.40727943    -0.11990000
opls_141-103    C    0.67855004    0.29109990    0.53756930    -0.00190000
opls_423-104    C    0.64573004    0.73191004    0.58542113    0.23290000
opls_700-105    C    0.53464997    0.58008993    0.47139111    0.03340000
opls_700-106    C    0.53392005    0.54021006    0.44609030    0.02100000
opls_145-107    C    0.56520005    0.51910996    0.35065884    -0.11800000
opls_700-108    C    0.42904020    0.60307000    0.52510083    0.06510000
opls_145-109    C    0.43256008    0.63833994    0.69997056    -0.11990000
opls_145-110    C    0.39946019    0.66081008    0.68483007    -0.12150000
opls_700-111    C    0.36104991    0.64871010    0.49523926    0.10600000
opls_145-112    C    0.35730013    0.61329000    0.32321931    -0.11930000
opls_145-113    C    0.39060992    0.59133993    0.33097981    -0.11930000
opls_142-114    C    0.67516007    0.67085992    0.51454054    -0.09700000
opls_700-115    C    0.28444997    0.72967001    0.47684902    0.06440000
opls_145-116    C    0.24651006    0.71274993    0.38317020    -0.11990000
opls_145-117    C    0.21279004    0.73263014    0.40727943    -0.11990000
opls_141-118    C    0.17855004    0.79109990    0.53756930    -0.00190000
opls_423-119    C    0.14573004    0.23191004    0.58542113    0.23310000
opls_700-120    C    0.50000000    0.47982989    0.50000000    0.00180000
opls_145-121    C    0.50000000    0.40121989    0.50000000    -0.17280000
opls_700-122    C    1.00000000    0.97982989    0.50000000    0.00180000
opls_145-123    C    1.00000000    0.90121989    0.50000000    -0.17270000
opls_700-124    C    0.50000000    0.52017011    0.50000000    0.00180000
opls_145-125    C    0.50000000    0.59878011    0.50000000    -0.17280000
opls_700-126    C    1.00000000    0.02017011    0.50000000    0.00180000
opls_145-127    C    1.00000000    0.09878011    0.50000000    -0.17280000
opls_144-128    H    0.70175008    0.34560996    0.50163876    0.10670000
opls_146-129    H    0.41101994    0.53385988    0.73920917    0.04670000
opls_146-130    H    0.53820016    0.64847993    0.14058073    0.10740000
opls_146-131    H    0.59645000    0.68757012    0.16490940    0.09420000
opls_146-132    H    0.67226004    0.60333004    0.83139089    0.06230000
opls_146-133    H    0.61352000    0.56501996    0.82719122    0.10390000
opls_146-134    H    0.74282993    0.81634000    0.28288911    0.10700000
opls_146-135    H    0.68354012    0.78123009    0.32781895    0.11080000
opls_144-136    H    0.20175008    0.84560996    0.50163876    0.10670000
opls_146-137    H    0.91101994    0.03385988    0.73920917    0.04670000
opls_146-138    H    0.03820016    0.14847993    0.14058073    0.10740000
opls_146-139    H    0.09645000    0.18757012    0.16490940    0.09410000
opls_146-140    H    0.17226004    0.10333004    0.83139089    0.06240000
opls_146-141    H    0.11352000    0.06501996    0.82719122    0.10400000
opls_146-142    H    0.24282993    0.31634000    0.28288911    0.10700000
opls_146-143    H    0.18354012    0.28123009    0.32781895    0.11080000
opls_144-144    H    0.29825021    0.34560996    0.49836124    0.10640000
opls_146-145    H    0.58898006    0.53385988    0.26079083    0.04670000
opls_146-146    H    0.46180013    0.64847993    0.85941927    0.10740000
opls_146-147    H    0.40355000    0.68757012    0.83509060    0.09410000
opls_146-148    H    0.32773996    0.60333004    0.16860911    0.06230000
opls_146-149    H    0.38648000    0.56501996    0.17280878    0.10390000
opls_146-150    H    0.25717007    0.81634000    0.71711089    0.10700000
opls_146-151    H    0.31646017    0.78123009    0.67218105    0.11080000
opls_144-152    H    0.79825021    0.84560996    0.49836124    0.10640000
opls_146-153    H    0.08898006    0.03385988    0.26079083    0.04670000
opls_146-154    H    0.96180013    0.14847993    0.85941927    0.10740000
opls_146-155    H    0.90355000    0.18757012    0.83509060    0.09410000
opls_146-156    H    0.82773996    0.10333004    0.16860911    0.06230000
opls_146-157    H    0.88648000    0.06501996    0.17280878    0.10400000
opls_146-158    H    0.75717007    0.31634000    0.71711089    0.10700000
opls_146-159    H    0.81646017    0.28123009    0.67218105    0.11080000
opls_144-160    H    0.29825021    0.65439004    0.49836124    0.10640000
opls_146-161    H    0.58898006    0.46614012    0.26079083    0.04670000
opls_146-162    H    0.46180013    0.35152007    0.85941927    0.10740000
opls_146-163    H    0.40355000    0.31242988    0.83509060    0.09410000
opls_146-164    H    0.32773996    0.39666996    0.16860911    0.06230000
opls_146-165    H    0.38648000    0.43498004    0.17280878    0.10390000
opls_146-166    H    0.25717007    0.18366000    0.71711089    0.10700000
opls_146-167    H    0.31646017    0.21876991    0.67218105    0.11080000
opls_144-168    H    0.79825021    0.15439004    0.49836124    0.10640000
opls_146-169    H    0.08898006    0.96614012    0.26079083    0.04670000
opls_146-170    H    0.96180013    0.85152007    0.85941927    0.10740000
opls_146-171    H    0.90355000    0.81242988    0.83509060    0.09420000
opls_146-172    H    0.82773996    0.89666996    0.16860911    0.06240000
opls_146-173    H    0.88648000    0.93498004    0.17280878    0.10390000
opls_146-174    H    0.75717007    0.68366000    0.71711089    0.10710000
opls_146-175    H    0.81646017    0.71876991    0.67218105    0.11080000
opls_144-176    H    0.70175008    0.65439004    0.50163876    0.10680000
opls_146-177    H    0.41101994    0.46614012    0.73920917    0.04670000
opls_146-178    H    0.53820016    0.35152007    0.14058073    0.10740000
opls_146-179    H    0.59645000    0.31242988    0.16490940    0.09410000
opls_146-180    H    0.67226004    0.39666996    0.83139089    0.06230000
opls_146-181    H    0.61352000    0.43498004    0.82719122    0.10390000
opls_146-182    H    0.74282993    0.18366000    0.28288911    0.10700000
opls_146-183    H    0.68354012    0.21876991    0.32781895    0.11090000
opls_144-184    H    0.20175008    0.15439004    0.50163876    0.10670000
opls_146-185    H    0.91101994    0.96614012    0.73920917    0.04670000
opls_146-186    H    0.03820016    0.85152007    0.14058073    0.10740000
opls_146-187    H    0.09645000    0.81242988    0.16490940    0.09410000
opls_146-188    H    0.17226004    0.89666996    0.83139089    0.06230000
opls_146-189    H    0.11352000    0.93498004    0.82719122    0.10390000
opls_146-190    H    0.24282993    0.68366000    0.28288911    0.10700000
opls_146-191    H    0.18354012    0.71876991    0.32781895    0.11080000
opls_146-192    H    0.50000000    0.62961000    0.50000000    0.10710000
opls_146-193    H    1.00000000    0.12961000    0.50000000    0.10700000
opls_146-194    H    0.50000000    0.37039000    0.50000000    0.10700000
opls_146-195    H    1.00000000    0.87039000    0.50000000    0.10700000
opls_753-196    N    0.62077015    0.24881012    0.64656082    -0.29300000
opls_753-197    N    0.12077015    0.74881012    0.64656082    -0.29310000
opls_753-198    N    0.37923014    0.24881012    0.35343918    -0.29300000
opls_753-199    N    0.87923014    0.74881012    0.35343918    -0.29310000
opls_753-200    N    0.37923014    0.75118988    0.35343918    -0.29300000
opls_753-201    N    0.87923014    0.25118988    0.35343918    -0.29300000
opls_753-202    N    0.62077015    0.75118988    0.64656082    -0.29300000
opls_753-203    N    0.12077015    0.25118988    0.64656082    -0.29310000
