#======================================================================
# Crystal Data Generated By AuToFF
#----------------------------------------------------------------------

data_AuToFF_phase_1

_cell_length_a                         30.5000
_cell_length_b                         30.5000
_cell_length_c                         5.0000
_cell_angle_alpha                      90.00
_cell_angle_beta                       90.00
_cell_angle_gamma                      120.00
_symmetry_space_group_name_H-M_alt     'P 1'
_symmetry_space_group_IT_number        1

loop_
_space_group_symop_operation_xyz
   'x, y, z'

loop_
   _atom_site_label
   _atom_site_type_symbol
   _atom_site_fract_x
   _atom_site_fract_y
   _atom_site_fract_z
   _atom_site_charge
opls_145-0    C    0.43811008    0.79849033    0.40152000    -0.20690000
opls_700-1    C    0.42976998    0.75737011    0.23551000    0.06410000
opls_145-2    C    0.47037023    0.76427030    0.06809000    -0.20890000
opls_145-3    C    0.51583016    0.81131016    0.05245000    -0.24040000
opls_145-4    C    0.52150014    0.85292028    0.20261000    0.16930000
opls_145-5    C    0.48289009    0.84559001    0.38287000    -0.24030000
opls_142-6    C    0.60895021    0.93056008    0.14628000    0.08740000
opls_700-7    C    0.79406995    0.93525006    0.31145000    0.07340000
opls_145-8    C    0.80572995    0.89732022    0.37474000    -0.23320000
opls_145-9    C    0.85632007    0.91040014    0.42994000    -0.09660000
opls_700-10    C    0.89742008    0.96120016    0.45344000    0.04960000
opls_145-11    C    0.88550020    0.99550007    0.32651000    -0.20690000
opls_145-12    C    0.83555018    0.98434036    0.27246000    -0.23320000
opls_700-13    C    0.97964014    0.03233995    0.64502000    -0.03410000
opls_700-14    C    0.94683010    0.97942020    0.57909000    -0.03610000
opls_700-15    C    0.38188018    0.71206004    0.23409000    0.05930000
opls_145-16    C    0.37761998    0.66367997    0.23232000    -0.11500000
opls_700-17    C    0.96202019    0.06310004    0.77733000    0.04810000
opls_145-18    C    0.99610019    0.10926006    0.90526000    -0.20690000
opls_145-19    C    0.98522998    0.14877013    0.94174000    -0.15580000
opls_145-20    C    0.93670994    0.14097988    0.88023000    -0.25720000
opls_145-21    C    0.89832010    0.09041004    0.84075000    -0.15580000
opls_145-22    C    0.91126011    0.05261006    0.80245000    -0.23280000
opls_136-23    C    0.27513996    0.02699009    0.90634000    -0.33580000
opls_136-24    C    0.26253992    0.98023001    0.72641000    -0.15570000
opls_136-25    C    0.30801998    0.98362029    0.56668000    -0.17180000
opls_136-26    C    0.30586997    0.93225011    0.51617000    -0.17640000
opls_135-27    C    0.31137007    0.13306014    0.87656000    -0.50790000
opls_135-28    C    0.25886997    0.07373010    0.47166000    -0.51610000
opls_700-29    C    0.18245019    0.25595021    0.28778000    0.04940000
opls_145-30    C    0.22608010    0.26993004    0.44452000    -0.23280000
opls_145-31    C    0.27048978    0.31655989    0.40571000    -0.23280000
opls_700-32    C    0.27293016    0.35103016    0.20914000    0.04400000
opls_145-33    C    0.22820990    0.33936996    0.06809000    -0.20520000
opls_145-34    C    0.18334997    0.29233010    0.10787000    -0.15820000
opls_136-35    C    0.11128992    0.36628016    0.40438000    -0.17220000
opls_136-36    C    0.15674979    0.41571991    0.29387000    -0.15930000
opls_142-37    C    0.18144989    0.45440995    0.49818000    -0.12690000
opls_143-38    C    0.18047007    0.49778998    0.50334000    -0.34860000
opls_145-39    C    0.20151008    0.63962017    0.40152000    -0.20690000
opls_700-40    C    0.24262986    0.67240004    0.23551000    0.06410000
opls_145-41    C    0.23573013    0.70610027    0.06809000    -0.20890000
opls_145-42    C    0.18869018    0.70452003    0.05245000    -0.24040000
opls_145-43    C    0.14707987    0.66858006    0.20261000    0.16930000
opls_145-44    C    0.15441008    0.63730017    0.38287000    -0.24030000
opls_142-45    C    0.06943997    0.67839010    0.14628000    0.08740000
opls_700-46    C    0.06475011    0.85882023    0.31145000    0.07340000
opls_145-47    C    0.10268022    0.90841027    0.37474000    -0.23320000
opls_145-48    C    0.08960013    0.94592025    0.42994000    -0.09660000
opls_700-49    C    0.03880017    0.93622001    0.45344000    0.04960000
opls_145-50    C    0.00450009    0.89000018    0.32651000    -0.20690000
opls_145-51    C    0.01566017    0.85121018    0.27246000    -0.23320000
opls_700-52    C    0.96765994    0.94730022    0.64502000    -0.03410000
opls_700-53    C    0.02058017    0.96741018    0.57909000    -0.03610000
opls_700-54    C    0.28794014    0.66981995    0.23409000    0.05930000
opls_145-55    C    0.33632022    0.71394012    0.23232000    -0.11500000
opls_700-56    C    0.93690007    0.89892015    0.77733000    0.04810000
opls_145-57    C    0.89074004    0.88684008    0.90526000    -0.20690000
opls_145-58    C    0.85123015    0.83646030    0.94174000    -0.15580000
opls_145-59    C    0.85902010    0.79573003    0.88023000    -0.25720000
opls_145-60    C    0.90959010    0.80791004    0.84075000    -0.15580000
opls_145-61    C    0.94739004    0.85865024    0.80245000    -0.23280000
opls_136-62    C    0.97301014    0.24815011    0.90634000    -0.33580000
opls_136-63    C    0.01977006    0.28230995    0.72641000    -0.15570000
opls_136-64    C    0.01638006    0.32440011    0.56668000    -0.17180000
opls_136-65    C    0.06774995    0.37361990    0.51617000    -0.17640000
opls_135-66    C    0.86693993    0.17831003    0.87656000    -0.50790000
opls_135-67    C    0.92627009    0.18514017    0.47166000    -0.51610000
opls_700-68    C    0.74405004    0.92650008    0.28778000    0.04940000
opls_145-69    C    0.73007015    0.95615014    0.44452000    -0.23280000
opls_145-70    C    0.68344013    0.95393009    0.40571000    -0.23280000
opls_700-71    C    0.64897010    0.92190021    0.20914000    0.04400000
opls_145-72    C    0.66063025    0.88884018    0.06809000    -0.20520000
opls_145-73    C    0.70767005    0.89102010    0.10787000    -0.15820000
opls_136-74    C    0.63372022    0.74501027    0.40438000    -0.17220000
opls_136-75    C    0.58427999    0.74103015    0.29387000    -0.15930000
opls_142-76    C    0.54559021    0.72704010    0.49818000    -0.12690000
opls_143-77    C    0.50220998    0.68268028    0.50334000    -0.34860000
opls_145-78    C    0.36038021    0.56189026    0.40152000    -0.20690000
opls_700-79    C    0.32760003    0.57023022    0.23551000    0.06410000
opls_145-80    C    0.29390001    0.52963019    0.06809000    -0.20890000
opls_145-81    C    0.29548018    0.48417019    0.05245000    -0.24040000
opls_145-82    C    0.33142018    0.47850004    0.20261000    0.16930000
opls_145-83    C    0.36270002    0.51711020    0.38287000    -0.24030000
opls_142-84    C    0.32161002    0.39105020    0.14628000    0.08740000
opls_700-85    C    0.14118013    0.20593009    0.31145000    0.07340000
opls_145-86    C    0.09159002    0.19426988    0.37474000    -0.23310000
opls_145-87    C    0.05407999    0.14367998    0.42994000    -0.09660000
opls_700-88    C    0.06377994    0.10258021    0.45344000    0.04960000
opls_145-89    C    0.11000023    0.11450013    0.32651000    -0.20690000
opls_145-90    C    0.14879002    0.16445021    0.27246000    -0.23320000
opls_700-91    C    0.05269992    0.02035984    0.64502000    -0.03410000
opls_700-92    C    0.03258992    0.05316999    0.57909000    -0.03610000
opls_700-93    C    0.33018001    0.61812002    0.23409000    0.05930000
opls_145-94    C    0.28606031    0.62238030    0.23232000    -0.11500000
opls_700-95    C    0.10107993    0.03798019    0.77733000    0.04810000
opls_145-96    C    0.11315977    0.00389986    0.90526000    -0.20690000
opls_145-97    C    0.16354006    0.01476995    0.94174000    -0.15580000
opls_145-98    C    0.20426997    0.06329009    0.88023000    -0.25720000
opls_145-99    C    0.19209012    0.10167992    0.84075000    -0.15570000
opls_145-100    C    0.14135004    0.08874008    0.80245000    -0.23280000
opls_136-101    C    0.75185009    0.72486018    0.90634000    -0.33570000
opls_136-102    C    0.71769002    0.73746004    0.72641000    -0.15570000
opls_136-103    C    0.67560015    0.69197998    0.56668000    -0.17180000
opls_136-104    C    0.62638008    0.69412999    0.51617000    -0.17640000
opls_135-105    C    0.82169019    0.68863021    0.87656000    -0.50790000
opls_135-106    C    0.81486013    0.74113010    0.47166000    -0.51610000
opls_700-107    C    0.07349996    0.81755009    0.28778000    0.04940000
opls_145-108    C    0.04384993    0.77392019    0.44452000    -0.23280000
opls_145-109    C    0.04607009    0.72951002    0.40571000    -0.23280000
opls_700-110    C    0.07809992    0.72707001    0.20914000    0.04400000
opls_145-111    C    0.11116004    0.77179024    0.06809000    -0.20520000
opls_145-112    C    0.10898017    0.81665018    0.10787000    -0.15820000
opls_136-113    C    0.25499024    0.88871032    0.40438000    -0.17220000
opls_136-114    C    0.25897008    0.84325032    0.29387000    -0.15930000
opls_142-115    C    0.27296008    0.81855032    0.49818000    -0.12690000
opls_143-116    C    0.31732014    0.81953012    0.50334000    -0.34860000
opls_750-117    N    0.55805031    0.90140029    0.16047000    -0.36550000
opls_750-118    N    0.09860023    0.65665030    0.16047000    -0.36550000
opls_750-119    N    0.34335016    0.44195016    0.16047000    -0.36540000
opls_146-120    H    0.54349992    0.81566017    0.92241000    0.19070000
opls_146-121    H    0.48660015    0.87496030    0.49867000    0.19060000
opls_144-122    H    0.62007983    0.96718000    0.09598000    0.09290000
opls_146-123    H    0.77768993    0.86020019    0.38275000    0.19060000
opls_146-124    H    0.86228992    0.88073001    0.44663000    0.19090000
opls_146-125    H    0.41114004    0.79487025    0.53561000    0.19060000
opls_146-126    H    0.46664007    0.73540013    0.94892000    0.19060000
opls_146-127    H    0.91372010    0.03161003    0.29271000    0.19080000
opls_146-128    H    0.41001999    0.66158030    0.22916000    0.19060000
opls_146-129    H    0.01405977    0.18353987    0.99689000    0.19060000
opls_146-130    H    0.86099999    0.08047015    0.82851000    0.19060000
opls_146-131    H    0.88187000    0.01670000    0.79148000    0.19080000
opls_140-132    H    0.25410021    0.01070010    0.08823000    0.10510000
opls_140-133    H    0.31501009    0.04587001    0.96244000    0.11260000
opls_140-134    H    0.23110008    0.97140999    0.59143000    0.08230000
opls_140-135    H    0.24903006    0.94761028    0.85889000    0.07660000
opls_140-136    H    0.34340016    0.00753016    0.67344000    0.09080000
opls_140-137    H    0.31105007    0.00190015    0.37564000    0.07930000
opls_140-138    H    0.31411004    0.91965024    0.70466000    0.08520000
opls_140-139    H    0.33637024    0.93939033    0.37669000    0.07690000
opls_140-140    H    0.34642023    0.13642013    0.79995000    0.11330000
opls_140-141    H    0.31629002    0.14126988    0.08846000    0.10480000
opls_140-142    H    0.30596989    0.16204010    0.77986000    0.10760000
opls_140-143    H    0.25496012    0.10561007    0.40448000    0.11310000
opls_140-144    H    0.22569022    0.03900011    0.40672000    0.10640000
opls_140-145    H    0.29361014    0.07675012    0.39448000    0.10810000
opls_146-146    H    0.22633013    0.24571010    0.58579000    0.19060000
opls_146-147    H    0.30162006    0.32440011    0.51865000    0.19060000
opls_146-148    H    0.22846008    0.36384999    0.92779000    0.19070000
opls_146-149    H    0.15188019    0.28413021    0.99779000    0.19060000
opls_146-150    H    0.82961994    0.01283005    0.20888000    0.19060000
opls_140-151    H    0.09664986    0.33864988    0.24286000    0.07440000
opls_140-152    H    0.12485016    0.35091999    0.56081000    0.08520000
opls_140-153    H    0.14367994    0.42939005    0.12676000    0.07850000
opls_140-154    H    0.18470010    0.40689004    0.21318000    0.10090000
opls_144-155    H    0.19982022    0.44802010    0.64319000    0.19100000
opls_144-156    H    0.16245997    0.50583995    0.36369000    0.13170000
opls_144-157    H    0.19780001    0.52268003    0.64879000    0.13170000
opls_146-158    H    0.03192004    0.11680991    0.94431000    0.19080000
opls_146-159    H    0.18434003    0.72784006    0.92241000    0.19060000
opls_146-160    H    0.12504003    0.61164007    0.49867000    0.19060000
opls_144-161    H    0.03282016    0.65289998    0.09598000    0.09290000
opls_146-162    H    0.13980009    0.91749001    0.38275000    0.19060000
opls_146-163    H    0.11927016    0.98156000    0.44663000    0.19090000
opls_146-164    H    0.20513019    0.61627023    0.53561000    0.19060000
opls_146-165    H    0.26460009    0.73124018    0.94892000    0.19060000
opls_146-166    H    0.96839007    0.88210998    0.29271000    0.19090000
opls_146-167    H    0.33842015    0.74844030    0.22916000    0.19060000
opls_146-168    H    0.81646011    0.83052022    0.99689000    0.19060000
opls_146-169    H    0.91952992    0.78053000    0.82851000    0.19060000
opls_146-170    H    0.98330024    0.86517033    0.79148000    0.19080000
opls_140-171    H    0.98929997    0.24339994    0.08823000    0.10500000
opls_140-172    H    0.95412996    0.26913992    0.96244000    0.11260000
opls_140-173    H    0.02858988    0.25968993    0.59143000    0.08230000
opls_140-174    H    0.05239003    0.30142005    0.85889000    0.07660000
opls_140-175    H    0.99247003    0.33586989    0.67344000    0.09080000
opls_140-176    H    0.99809997    0.30915011    0.37564000    0.07930000
opls_140-177    H    0.08035008    0.39446016    0.70466000    0.08520000
opls_140-178    H    0.06061003    0.39698006    0.37669000    0.07690000
opls_140-179    H    0.86357997    0.20999994    0.79995000    0.11330000
opls_140-180    H    0.85873004    0.17502007    0.08846000    0.10430000
opls_140-181    H    0.83796001    0.14392985    0.77986000    0.10760000
opls_140-182    H    0.89439015    0.14935013    0.40448000    0.11310000
opls_140-183    H    0.96100014    0.18669012    0.40672000    0.10640000
opls_140-184    H    0.92325000    0.21685999    0.39448000    0.10810000
opls_146-185    H    0.75429017    0.98062034    0.58579000    0.19060000
opls_146-186    H    0.67560027    0.97722022    0.51865000    0.19060000
opls_146-187    H    0.63614992    0.86461001    0.92779000    0.19060000
opls_146-188    H    0.71587010    0.86775004    0.99779000    0.19060000
opls_146-189    H    0.98717021    0.81679026    0.20888000    0.19060000
opls_140-190    H    0.66134988    0.75800009    0.24286000    0.07440000
opls_140-191    H    0.64908010    0.77393004    0.56081000    0.08520000
opls_140-192    H    0.57061007    0.71429031    0.12676000    0.07850000
opls_140-193    H    0.59311002    0.77781021    0.21318000    0.10090000
opls_144-194    H    0.55198015    0.75180029    0.64319000    0.19100000
opls_144-195    H    0.49415984    0.65662001    0.36369000    0.13170000
opls_144-196    H    0.47732011    0.67512021    0.64879000    0.13170000
opls_146-197    H    0.88319018    0.91511019    0.94431000    0.19080000
opls_146-198    H    0.27216024    0.45650015    0.92241000    0.19060000
opls_146-199    H    0.38836001    0.51340002    0.49867000    0.19060000
opls_144-200    H    0.34710001    0.37992002    0.09598000    0.09290000
opls_146-201    H    0.08251017    0.22231018    0.38275000    0.19060000
opls_146-202    H    0.01843991    0.13770999    0.44663000    0.19090000
opls_146-203    H    0.38373014    0.58886028    0.53561000    0.19060000
opls_146-204    H    0.26876003    0.53336006    0.94892000    0.19060000
opls_146-205    H    0.11789016    0.08628000    0.29271000    0.19080000
opls_146-206    H    0.25155991    0.58998015    0.22916000    0.19060000
opls_146-207    H    0.16947979    0.98593991    0.99689000    0.19060000
opls_146-208    H    0.21947009    0.13899985    0.82851000    0.19060000
opls_146-209    H    0.13482994    0.11813005    0.79148000    0.19080000
opls_140-210    H    0.75660014    0.74589996    0.08823000    0.10500000
opls_140-211    H    0.73085995    0.68499006    0.96244000    0.11260000
opls_140-212    H    0.74031004    0.76890009    0.59143000    0.08230000
opls_140-213    H    0.69858010    0.75097004    0.85889000    0.07660000
opls_140-214    H    0.66413014    0.65659995    0.67344000    0.09080000
opls_140-215    H    0.69085014    0.68895012    0.37564000    0.07930000
opls_140-216    H    0.60554007    0.68588997    0.70466000    0.08520000
opls_140-217    H    0.60301991    0.66362999    0.37669000    0.07700000
opls_140-218    H    0.79000013    0.65357993    0.79995000    0.11330000
opls_140-219    H    0.82497994    0.68371005    0.08846000    0.10430000
opls_140-220    H    0.85607010    0.69403005    0.77986000    0.10760000
opls_140-221    H    0.85064993    0.74504018    0.40448000    0.11310000
opls_140-222    H    0.81331015    0.77431014    0.40672000    0.10640000
opls_140-223    H    0.78314005    0.70639027    0.39448000    0.10810000
opls_146-224    H    0.01938008    0.77367032    0.58579000    0.19060000
opls_146-225    H    0.02277986    0.69838005    0.51865000    0.19060000
opls_146-226    H    0.13539000    0.77154000    0.92779000    0.19060000
opls_146-227    H    0.13225023    0.84812013    0.99779000    0.19060000
opls_146-228    H    0.18321004    0.17038007    0.20888000    0.19060000
opls_140-229    H    0.24199993    0.90335003    0.24286000    0.07440000
opls_140-230    H    0.22607026    0.87515035    0.56081000    0.08520000
opls_140-231    H    0.28570985    0.85632002    0.12676000    0.07850000
opls_140-232    H    0.22219006    0.81530013    0.21318000    0.10090000
opls_144-233    H    0.24819983    0.80017998    0.64319000    0.19100000
opls_144-234    H    0.34337986    0.83754004    0.36369000    0.13170000
opls_144-235    H    0.32488007    0.80220014    0.64879000    0.13170000
opls_146-236    H    0.08488979    0.96807991    0.94431000    0.19080000
MOF2_Si3-237    Si    0.26178006    0.07344995    0.80604000    0.59140000
MOF2_Si3-238    Si    0.92655001    0.18833018    0.80604000    0.59130000
MOF2_Si3-239    Si    0.81167013    0.73822025    0.80604000    0.59130000
