#======================================================================
# Crystal Data Generated By AuToFF
#----------------------------------------------------------------------

data_AuToFF_phase_1

_cell_length_a                         47.3078
_cell_length_b                         47.2950
_cell_length_c                         4.7160
_cell_angle_alpha                      89.98
_cell_angle_beta                       90.01
_cell_angle_gamma                      59.99
_symmetry_space_group_name_H-M_alt     'P 1'
_symmetry_space_group_IT_number        1

loop_
_space_group_symop_operation_xyz
   'x, y, z'

loop_
   _atom_site_label
   _atom_site_type_symbol
   _atom_site_fract_x
   _atom_site_fract_y
   _atom_site_fract_z
   _atom_site_charge
opls_700-0    C    0.29019996    0.14070001    0.16180025    0.06660000
opls_145-1    C    0.31930009    0.11029999    0.17399915    -0.12730000
opls_145-2    C    0.34969995    0.10800005    0.15420059    -0.16410000
opls_145-3    C    0.35220003    0.13630002    0.12920059    0.20350000
opls_145-4    C    0.32330010    0.16689997    0.11790076    -0.16500000
opls_145-5    C    0.29300000    0.16890006    0.13250000    -0.12400000
opls_700-6    C    0.25789998    0.14309993    0.17360051    0.06660000
opls_145-7    C    0.25390003    0.11639994    0.09720102    -0.12850000
opls_145-8    C    0.22339986    0.11870010    0.10139949    -0.16520000
opls_145-9    C    0.19550009    0.14800002    0.18379983    0.19740000
opls_145-10    C    0.19939988    0.17440002    0.26879983    -0.16810000
opls_145-11    C    0.22990007    0.17199994    0.26050042    -0.12760000
opls_142-12    C    0.38979995    0.15410010    0.21810008    0.07520000
opls_142-13    C    0.15580005    0.13559988    0.02259966    0.07510000
opls_700-14    C    0.42050007    0.15380001    0.16910093    0.05800000
opls_145-15    C    0.44339991    0.13270007    0.96879983    -0.11670000
opls_145-16    C    0.42730005    0.17549997    0.31889949    -0.12760000
opls_145-17    C    0.47170001    0.13380001    0.91569975    -0.12620000
opls_145-18    C    0.45569997    0.17650003    0.26600085    -0.12750000
opls_700-19    C    0.47809994    0.15620006    0.05870017    0.07000000
opls_700-20    C    0.12380005    0.13789997    0.03379983    0.06150000
opls_145-21    C    0.09950003    0.15900006    0.22550042    -0.11570000
opls_145-22    C    0.11659997    0.11889991    0.84969890    -0.11550000
opls_145-23    C    0.06909999    0.16140011    0.22930025    -0.12160000
opls_145-24    C    0.08629987    0.12099998    0.85639949    -0.11750000
opls_700-25    C    0.06179996    0.14259988    0.04290076    0.07080000
opls_700-26    C    0.02939992    0.14450007    0.04750000    -0.02750000
opls_700-27    C    0.00059998    0.17379991    0.06100085    -0.02900000
opls_700-28    C    0.98669993    0.63410000    0.98040076    0.07030000
opls_145-29    C    0.96309997    0.62959998    0.83730068    -0.12790000
opls_145-30    C    0.00920003    0.60890005    0.15720102    -0.11570000
opls_145-31    C    0.96279990    0.60040003    0.86129983    -0.12620000
opls_145-32    C    0.00880017    0.57979994    0.18199958    -0.12160000
opls_700-33    C    0.98589999    0.57490002    0.03230068    0.05410000
opls_142-34    C    0.98660000    0.54369991    0.05410093    0.07510000
opls_145-35    C    0.96749995    0.50749994    0.94969890    0.20210000
opls_145-36    C    0.95889995    0.49459999    0.71769932    -0.16810000
opls_145-37    C    0.97589999    0.49019993    0.20839907    -0.17310000
opls_145-38    C    0.95980000    0.46479992    0.74060008    -0.12620000
opls_145-39    C    0.97619993    0.46069999    0.23050042    -0.12480000
opls_700-40    C    0.96860007    0.44719993    0.99699958    0.06620000
opls_700-41    C    0.96979997    0.41540004    0.02089907    0.06970000
opls_145-42    C    0.97550006    0.39539991    0.78100085    -0.12760000
opls_145-43    C    0.96550001    0.40389990    0.28420059    -0.12760000
opls_145-44    C    0.97739992    0.36519993    0.80290076    -0.16520000
opls_145-45    C    0.96680006    0.37399994    0.30750000    -0.16510000
opls_145-46    C    0.97350009    0.35380006    0.06810008    0.20030000
opls_142-47    C    0.99380006    0.29870000    0.94560008    0.07510000
opls_700-48    C    0.99490002    0.26730000    0.97100085    0.06150000
opls_145-49    C    0.97530005    0.26260008    0.16870017    -0.11670000
opls_145-50    C    0.01610005    0.24079992    0.79829941    -0.12480000
opls_145-51    C    0.97719990    0.23250001    0.19500000    -0.12160000
opls_145-52    C    0.01809996    0.21059996    0.82509966    -0.11670000
opls_700-53    C    0.99900012    0.20579996    0.02740034    0.07010000
opls_700-54    C    0.03029991    0.11270007    0.04120017    0.07040000
opls_145-55    C    0.00799993    0.10799999    0.87839907    -0.12480000
opls_145-56    C    0.05430001    0.08599993    0.19629983    -0.12380000
opls_145-57    C    0.00879991    0.07819990    0.87990034    -0.12480000
opls_145-58    C    0.05509986    0.05620010    0.19759966    -0.12160000
opls_700-59    C    0.03220012    0.05189988    0.04220102    0.05430000
opls_142-60    C    0.03280002    0.02059991    0.05300042    0.07510000
opls_145-61    C    0.01139998    0.98620004    0.95259966    0.20080000
opls_145-62    C    0.02030013    0.96819990    0.20790076    -0.17400000
opls_145-63    C    0.00060005    0.97479988    0.72420059    -0.16370000
opls_145-64    C    0.01900014    0.93959996    0.23019932    -0.11980000
opls_145-65    C    0.99990016    0.94589982    0.74719890    -0.11670000
opls_700-66    C    0.00910003    0.92759994    0.00029898    0.06660000
opls_700-67    C    0.00830000    0.89679995    0.02399915    0.07070000
opls_145-68    C    0.00430012    0.88530000    0.28850085    -0.09930000
opls_145-69    C    0.01140005    0.87800003    0.78180025    -0.09290000
opls_145-70    C    0.00350001    0.85639998    0.31060008    -0.16540000
opls_145-71    C    0.01119996    0.84879999    0.80240034    -0.15490000
opls_145-72    C    0.00760008    0.83729997    0.06839907    0.20010000
opls_142-73    C    0.02380008    0.78349997    0.93329941    0.07750000
opls_700-74    C    0.02200006    0.75359982    0.93910093    0.05410000
opls_145-75    C    0.00150009    0.74929991    0.13009966    -0.12570000
opls_145-76    C    0.04090005    0.72820006    0.74819975    -0.12620000
opls_145-77    C    0.99950011    0.72100002    0.12620017    -0.12020000
opls_145-78    C    0.03890002    0.69980006    0.74420059    -0.12570000
opls_700-79    C    0.01770002    0.69599999    0.92949958    0.07110000
opls_700-80    C    0.01580000    0.66549992    0.91870017    -0.02890000
opls_700-81    C    0.98710000    0.66519995    0.94860051    -0.02770000
opls_700-82    C    0.96880008    0.17519995    0.11069975    0.07020000
opls_145-83    C    0.94140010    0.19599987    0.94560008    -0.11550000
opls_145-84    C    0.96529992    0.15640008    0.32399915    -0.11700000
opls_145-85    C    0.91189984    0.19680005    0.98300042    -0.12480000
opls_145-86    C    0.93569993    0.15749999    0.36410093    -0.12660000
opls_700-87    C    0.90859995    0.17720002    0.19120017    0.06300000
opls_142-88    C    0.87809997    0.17669990    0.22500000    0.07520000
opls_145-89    C    0.82530002    0.18969994    0.07699958    0.19840000
opls_145-90    C    0.82670007    0.16039988    0.16079941    -0.16370000
opls_145-91    C    0.79500006    0.21609996    0.99319975    -0.16330000
opls_145-92    C    0.79860000    0.15800006    0.16279898    -0.12480000
opls_145-93    C    0.76699998    0.21360008    0.99949958    -0.12300000
opls_700-94    C    0.76810002    0.18439990    0.08310008    0.06660000
opls_700-95    C    0.73839999    0.18149991    0.08209924    0.06650000
opls_145-96    C    0.74030002    0.15090005    0.05879983    -0.12570000
opls_145-97    C    0.70710012    0.20929990    0.10410093    -0.12790000
opls_145-98    C    0.71249991    0.14800004    0.05829941    -0.16410000
opls_145-99    C    0.67900005    0.20680008    0.09829941    -0.17310000
opls_145-100    C    0.68129987    0.17600009    0.07300042    0.20350000
opls_142-101    C    0.62720005    0.19309989    0.94439992    0.07510000
opls_700-102    C    0.59720003    0.19109990    0.95459924    0.05770000
opls_145-103    C    0.59490008    0.16819993    0.12899915    -0.12160000
opls_145-104    C    0.56999998    0.21240007    0.79079941    -0.12760000
opls_145-105    C    0.56640012    0.16649987    0.13730068    -0.12480000
opls_145-106    C    0.54139998    0.21079989    0.79889949    -0.12300000
opls_700-107    C    0.53919986    0.18759998    0.97000000    0.07080000
opls_700-108    C    0.50830007    0.18649994    0.98180025    -0.02900000
opls_700-109    C    0.50809985    0.15760009    0.99469890    -0.02970000
opls_700-110    C    0.95469997    0.69540005    0.95139949    0.07010000
opls_145-111    C    0.94710002    0.72150000    0.76389949    -0.12160000
opls_145-112    C    0.93030019    0.69819984    0.13910093    -0.12020000
opls_145-113    C    0.91670006    0.74960001    0.77110051    -0.12020000
opls_145-114    C    0.89980003    0.72629987    0.14589907    -0.12010000
opls_700-115    C    0.89260014    0.75269989    0.96430025    0.05770000
opls_142-116    C    0.86079987    0.78260005    0.97990034    0.07760000
opls_145-117    C    0.82280006    0.83649996    0.85339907    0.19840000
opls_145-118    C    0.79410007    0.83439995    0.85629983    -0.16550000
opls_145-119    C    0.82000013    0.86759985    0.85569975    -0.16540000
opls_145-120    C    0.76370005    0.86259994    0.86629983    -0.12400000
opls_145-121    C    0.78950000    0.89559986    0.87129983    -0.12660000
opls_700-122    C    0.76060018    0.89379982    0.87689992    0.07040000
opls_700-123    C    0.72820010    0.92380003    0.89389949    0.06660000
opls_145-124    C    0.70100007    0.92289993    0.00420059    -0.12300000
opls_145-125    C    0.72370010    0.95420004    0.80550042    -0.12490000
opls_145-126    C    0.67069995    0.95110006    0.02769932    -0.16860000
opls_145-127    C    0.69350009    0.98249998    0.82469890    -0.16410000
opls_145-128    C    0.66640005    0.98139991    0.93509966    0.19850000
opls_142-129    C    0.62589990    0.03430002    0.80110051    0.07510000
opls_700-130    C    0.59539993    0.06510007    0.84680025    0.06300000
opls_145-131    C    0.57409998    0.06890005    0.07120017    -0.11980000
opls_145-132    C    0.58710007    0.09189996    0.66709924    -0.11550000
opls_145-133    C    0.54580015    0.09859991    0.11589907    -0.11570000
opls_145-134    C    0.55909999    0.12170005    0.71439992    -0.12020000
opls_700-135    C    0.53810010    0.12569987    0.94209924    0.07000000
opls_700-136    C    0.04740011    0.63489997    0.87019932    0.07010000
opls_145-137    C    0.07550004    0.62899986    0.02079941    -0.11550000
opls_145-138    C    0.04999992    0.61160001    0.67029898    -0.11570000
opls_145-139    C    0.10489999    0.60009987    0.98250000    -0.11980000
opls_145-140    C    0.07950009    0.58300001    0.62870017    -0.11550000
opls_700-141    C    0.10730005    0.57649987    0.78699958    0.05480000
opls_142-142    C    0.13769999    0.54540004    0.75069975    0.07510000
opls_145-143    C    0.19130006    0.50629990    0.88290076    0.20300000
opls_145-144    C    0.18970009    0.47809987    0.81399915    -0.16420000
opls_145-145    C    0.22199993    0.50279995    0.94790076    -0.16520000
opls_145-146    C    0.21780007    0.44769994    0.80790076    -0.12790000
opls_145-147    C    0.25000008    0.47229986    0.93759966    -0.11670000
opls_700-148    C    0.24870011    0.44399995    0.86870017    0.07070000
opls_700-149    C    0.27849992    0.41139989    0.86579941    0.07140000
opls_145-150    C    0.27679999    0.38269984    0.90449958    -0.12380000
opls_145-151    C    0.30960001    0.40799992    0.82500000    -0.12570000
opls_145-152    C    0.30470004    0.35210002    0.90219890    -0.16590000
opls_145-153    C    0.33770004    0.37749998    0.82769932    -0.16510000
opls_145-154    C    0.33569991    0.34900003    0.86899915    0.19790000
opls_142-155    C    0.39029990    0.31250005    0.98569975    0.07750000
opls_700-156    C    0.42019993    0.28059994    0.97939992    0.05750000
opls_145-157    C    0.42220002    0.25450001    0.81850085    -0.11550000
opls_145-158    C    0.44769993    0.27529996    0.13629983    -0.12660000
opls_145-159    C    0.45050002    0.22419993    0.81829941    -0.11540000
opls_145-160    C    0.47610015    0.24499987    0.13649915    -0.12290000
opls_700-161    C    0.47779997    0.21880009    0.98079941    0.07190000
opls_146-162    H    0.31809988    0.08800003    0.19990034    0.11300000
opls_146-163    H    0.37179994    0.08420009    0.16480068    0.11020000
opls_146-164    H    0.32479993    0.18889996    0.08949958    0.11630000
opls_146-165    H    0.27120009    0.19270003    0.11620017    0.11940000
opls_146-166    H    0.27490004    0.09359997    0.02949958    0.11450000
opls_146-167    H    0.22129998    0.09760009    0.04379983    0.11770000
opls_146-168    H    0.17810006    0.19709992    0.33569975    0.11060000
opls_146-169    H    0.23210002    0.19290006    0.32699958    0.10850000
opls_144-170    H    0.37230000    0.17299994    0.36649915    0.06340000
opls_144-171    H    0.17250005    0.11980005    0.85250000    0.06140000
opls_146-172    H    0.43849997    0.11579995    0.85389949    0.12040000
opls_146-173    H    0.41009999    0.19159991    0.47769932    0.11280000
opls_146-174    H    0.48899987    0.11770003    0.75759966    0.11300000
opls_146-175    H    0.46059991    0.19330009    0.38519932    0.11020000
opls_146-176    H    0.10499994    0.17350009    0.37019932    0.11320000
opls_146-177    H    0.13509997    0.10240003    0.70129983    0.11340000
opls_146-178    H    0.05059986    0.17780008    0.37850085    0.11220000
opls_146-179    H    0.08109997    0.10609994    0.71300042    0.10800000
opls_146-180    H    0.94530002    0.64899992    0.70240034    0.11340000
opls_146-181    H    0.02700018    0.61219985    0.27569975    0.11470000
opls_146-182    H    0.94480009    0.59699996    0.74649915    0.11400000
opls_146-183    H    0.02650001    0.56050004    0.31829941    0.11320000
opls_144-184    H    0.00630007    0.52480004    0.18889949    0.04720000
opls_146-185    H    0.95209997    0.50779990    0.51779898    0.11450000
opls_146-186    H    0.98160009    0.50020003    0.39290076    0.11420000
opls_146-187    H    0.95310000    0.45539991    0.55810008    0.11450000
opls_146-188    H    0.98299995    0.44770001    0.43149915    0.11350000
opls_146-189    H    0.97889997    0.40359995    0.57459924    0.11010000
opls_146-190    H    0.96040016    0.41899985    0.47240034    0.11210000
opls_146-191    H    0.98160008    0.35049997    0.61370017    0.11430000
opls_146-192    H    0.96350008    0.36559999    0.51259966    0.11640000
opls_144-193    H    0.01089997    0.29970004    0.79009966    0.06340000
opls_146-194    H    0.95870004    0.28300008    0.30170059    0.11210000
opls_146-195    H    0.03110001    0.24409986    0.64170059    0.11210000
opls_146-196    H    0.96200004    0.22919989    0.35009966    0.10850000
opls_146-197    H    0.03439997    0.19059986    0.68790076    0.11760000
opls_146-198    H    0.98989997    0.12789994    0.75000000    0.11760000
opls_146-199    H    0.07189995    0.08909999    0.32029898    0.11530000
opls_146-200    H    0.99129995    0.07489988    0.75540076    0.11280000
opls_146-201    H    0.07359991    0.03599999    0.32189992    0.11020000
opls_144-202    H    0.05290013    0.00099992    0.17850085    0.06790000
opls_146-203    H    0.02780016    0.97709987    0.38980068    0.10860000
opls_146-204    H    0.99340009    0.98859984    0.52709924    0.11250000
opls_146-205    H    0.02619997    0.92610004    0.42860051    0.11350000
opls_146-206    H    0.99150005    0.93770004    0.56759966    0.11450000
opls_146-207    H    0.00120005    0.89959995    0.47879983    -0.11480000
opls_146-208    H    0.01449994    0.88610000    0.57449958    -0.11480000
opls_146-209    H    0.00040005    0.84799997    0.51680025    -0.11480000
opls_146-210    H    0.01330012    0.83499989    0.61149915    -0.11480000
opls_144-211    H    0.04150014    0.78379990    0.77930025    0.04730000
opls_146-212    H    0.98710023    0.76859983    0.28120017    0.11210000
opls_146-213    H    0.05700012    0.73100001    0.60100085    0.11460000
opls_146-214    H    0.98369995    0.71810007    0.27649915    0.11300000
opls_146-215    H    0.05340004    0.68060000    0.59319975    0.11540000
opls_146-216    H    0.94370000    0.21099986    0.78279898    0.11420000
opls_146-217    H    0.98599993    0.14080000    0.45779898    0.11600000
opls_146-218    H    0.89100008    0.21229997    0.85050042    0.11540000
opls_146-219    H    0.93329994    0.14260003    0.52860051    0.11040000
opls_144-220    H    0.87730000    0.16169997    0.40269932    0.06340000
opls_146-221    H    0.84989992    0.13930005    0.21870017    0.11670000
opls_146-222    H    0.79360004    0.23880000    0.92649915    0.11170000
opls_146-223    H    0.80039997    0.13510004    0.22949958    0.10900000
opls_146-224    H    0.74400000    0.23429990    0.93209924    0.11880000
opls_146-225    H    0.76410000    0.12890003    0.03899915    0.10870000
opls_146-226    H    0.70460010    0.23329995    0.12920059    0.11340000
opls_146-227    H    0.71460000    0.12409989    0.03800042    0.11210000
opls_146-228    H    0.65519995    0.22860004    0.12009966    0.11470000
opls_144-229    H    0.62620002    0.21289993    0.81170059    0.06070000
opls_146-230    H    0.61570008    0.15179988    0.25879983    0.11450000
opls_146-231    H    0.57140000    0.23039994    0.65579941    0.10980000
opls_146-232    H    0.56490008    0.14899991    0.27610051    0.11530000
opls_146-233    H    0.52069998    0.22739990    0.66969890    0.11540000
opls_146-234    H    0.96530006    0.71939987    0.61180025    0.11450000
opls_146-235    H    0.93559999    0.67820005    0.28310008    0.11400000
opls_146-236    H    0.91120014    0.76969991    0.62730068    0.11250000
opls_146-237    H    0.88140003    0.72819993    0.29470102    0.11480000
opls_144-238    H    0.84290016    0.78209985    0.12969890    0.04720000
opls_146-239    H    0.79580008    0.81069988    0.84459924    0.11870000
opls_146-240    H    0.84200002    0.86949981    0.85439992    0.11170000
opls_146-241    H    0.74190005    0.86039984    0.86329941    0.11400000
opls_146-242    H    0.78810007    0.91919988    0.88170059    0.11530000
opls_146-243    H    0.70359995    0.90000004    0.07899915    0.11760000
opls_146-244    H    0.74420005    0.95579988    0.71819975    0.10850000
opls_146-245    H    0.65010011    0.94989995    0.11470102    0.11550000
opls_146-246    H    0.69100012    0.00570003    0.75930025    0.11250000
opls_144-247    H    0.64019987    0.03340000    0.61089907    0.06140000
opls_146-248    H    0.58019992    0.04830009    0.20970102    0.11880000
opls_146-249    H    0.60309987    0.08920001    0.49069975    0.11160000
opls_146-250    H    0.52969992    0.10120007    0.29060008    0.11370000
opls_146-251    H    0.55309993    0.14219998    0.57430025    0.11420000
opls_146-252    H    0.07400005    0.64689988    0.17319975    0.11530000
opls_146-253    H    0.02870003    0.61619988    0.54750000    0.11690000
opls_146-254    H    0.12629998    0.59539996    0.10389949    0.11550000
opls_146-255    H    0.08109994    0.56519996    0.47410093    0.11300000
opls_144-256    H    0.13760015    0.52909984    0.58189992    0.06360000
opls_146-257    H    0.16619998    0.48009987    0.77079941    0.11350000
opls_146-258    H    0.22359995    0.52419991    0.00300042    0.11700000
opls_146-259    H    0.21580007    0.42639985    0.75269932    0.10890000
opls_146-260    H    0.27330011    0.47029991    0.99040076    0.11410000
opls_146-261    H    0.25330004    0.38439992    0.93910093    0.11650000
opls_146-262    H    0.31179992    0.42950000    0.78769932    0.11410000
opls_146-263    H    0.30280004    0.33039992    0.93490034    0.11880000
opls_146-264    H    0.36130010    0.37549987    0.79170059    0.11530000
opls_144-265    H    0.39159989    0.33189994    0.10740034    0.06360000
opls_146-266    H    0.40130001    0.25850004    0.69360051    0.12020000
opls_146-267    H    0.44660004    0.29529993    0.26019932    0.10870000
opls_146-268    H    0.45179991    0.20449996    0.69110051    0.11810000
opls_146-269    H    0.49699997    0.24129994    0.26120017    0.11360000
opls_750-270    N    0.36359992    0.31759992    0.86410093    -0.28360000
opls_750-271    N    0.16320007    0.53740001    0.90750000    -0.29280000
opls_750-272    N    0.85409996    0.80850005    0.83540076    -0.29400000
opls_750-273    N    0.63569991    0.00969998    0.97300042    -0.29160000
opls_750-274    N    0.65350001    0.17240005    0.07759966    -0.28400000
opls_750-275    N    0.00620011    0.80829983    0.09629983    -0.29290000
opls_750-276    N    0.01120006    0.01599989    0.92389949    -0.30230000
opls_750-277    N    0.85350000    0.19270007    0.05550042    -0.29100000
opls_750-278    N    0.16410001    0.15149989    0.19680025    -0.29260000
opls_750-279    N    0.38320006    0.13349987    0.09610051    -0.29100000
opls_750-280    N    0.97449999    0.32369995    0.10079941    -0.28990000
opls_750-281    N    0.96619993    0.53779997    0.91839907    -0.29040000
