#======================================================================
# Crystal Data Generated By AuToFF
#----------------------------------------------------------------------

data_AuToFF_phase_1

_cell_length_a                         21.6800
_cell_length_b                         21.6800
_cell_length_c                         3.6000
_cell_angle_alpha                      90.00
_cell_angle_beta                       90.00
_cell_angle_gamma                      120.00
_symmetry_space_group_name_H-M_alt     'P 1'
_symmetry_space_group_IT_number        1

loop_
_space_group_symop_operation_xyz
   'x, y, z'

loop_
   _atom_site_label
   _atom_site_type_symbol
   _atom_site_fract_x
   _atom_site_fract_y
   _atom_site_fract_z
   _atom_site_charge
opls_280-0    C    0.26700978    0.59703985    0.99183056    0.35410000
opls_145-1    C    0.33700994    0.59991010    0.01933889    -0.11280000
opls_142-2    C    0.34143000    0.54056019    0.07846944    0.04940000
opls_916-3    C    0.25559006    0.40706018    0.12288889    0.20370000
opls_145-4    C    0.18424010    0.35951986    0.19995000    -0.17480000
opls_145-5    C    0.15401998    0.28842003    0.10476944    -0.16220000
opls_916-6    C    0.19402978    0.26289997    0.92141111    0.19090000
opls_145-7    C    0.26678972    0.31003977    0.85198056    -0.18870000
opls_145-8    C    0.29768989    0.38234011    0.95090000    -0.18990000
opls_142-9    C    0.08410012    0.14867995    0.77451111    0.04920000
opls_145-10    C    0.04574000    0.07842004    0.84411111    -0.23220000
opls_280-11    C    0.07774999    0.03239020    0.88708056    0.34990000
opls_280-12    C    0.40296023    0.66997027    0.99183056    0.35410000
opls_145-13    C    0.40009014    0.73710003    0.01933889    -0.11280000
opls_142-14    C    0.45944011    0.80087007    0.07846944    0.04940000
opls_916-15    C    0.59293993    0.84853023    0.12288889    0.20370000
opls_145-16    C    0.64047986    0.82471986    0.19995000    -0.17480000
opls_145-17    C    0.71157992    0.86559988    0.10476944    -0.16220000
opls_916-18    C    0.73710016    0.93113021    0.92141111    0.19090000
opls_145-19    C    0.68995980    0.95674986    0.85198056    -0.18870000
opls_145-20    C    0.61765978    0.91535001    0.95090000    -0.18990000
opls_142-21    C    0.85131971    0.93541985    0.77451111    0.04920000
opls_145-22    C    0.92158023    0.96732006    0.84411111    -0.23220000
opls_280-23    C    0.96760980    0.04535981    0.88708056    0.34990000
opls_280-24    C    0.33002999    0.73298987    0.99183056    0.35410000
opls_145-25    C    0.26289992    0.66298988    0.01933889    -0.11280000
opls_142-26    C    0.19913015    0.65857027    0.07846944    0.04940000
opls_916-27    C    0.15147028    0.74441011    0.12288889    0.20370000
opls_145-28    C    0.17528005    0.81576028    0.19995000    -0.17480000
opls_145-29    C    0.13440010    0.84598009    0.10476944    -0.16220000
opls_916-30    C    0.06887006    0.80596982    0.92141111    0.19090000
opls_145-31    C    0.04324975    0.73320984    0.85198056    -0.18870000
opls_145-32    C    0.08464987    0.70230988    0.95090000    -0.18990000
opls_142-33    C    0.06458017    0.91590020    0.77451111    0.04920000
opls_145-34    C    0.03267977    0.95425990    0.84411111    -0.23200000
opls_280-35    C    0.95464021    0.92224998    0.88708056    0.34990000
opls_281-36    O    0.21255007    0.54028004    0.94316944    -0.35500000
opls_281-37    O    0.14025002    0.05794008    0.97318889    -0.38750000
opls_281-38    O    0.45971992    0.67227009    0.94316944    -0.35500000
opls_281-39    O    0.94206010    0.08231023    0.97318889    -0.38730000
opls_281-40    O    0.32773001    0.78744987    0.94316944    -0.38680000
opls_281-41    O    0.91769014    0.85975022    0.97318889    -0.38740000
opls_238-42    N    0.28305022    0.47902019    0.24256944    -0.29020000
opls_238-43    N    0.16036981    0.19013999    0.79555000    -0.33780000
opls_238-44    N    0.52097997    0.80403005    0.24256944    -0.29020000
opls_238-45    N    0.80986005    0.97023024    0.79555000    -0.33790000
opls_238-46    N    0.19597007    0.71695029    0.24256944    -0.29010000
opls_238-47    N    0.02976968    0.83962977    0.79555000    -0.33790000
opls_144-48    H    0.39191020    0.54212021    0.05718889    0.12290000
opls_910-49    H    0.25216023    0.48761014    0.43606944    0.27160000
opls_146-50    H    0.15174991    0.37770000    0.33886111    0.11590000
opls_146-51    H    0.09905990    0.25352016    0.18168056    0.12010000
opls_146-52    H    0.29881984    0.29123008    0.71446944    0.11470000
opls_146-53    H    0.35348993    0.41818004    0.89156944    0.11940000
opls_910-54    H    0.19155011    0.17078011    0.67996944    0.27160000
opls_144-55    H    0.05548981    0.17701006    0.72631111    0.10810000
opls_144-56    H    0.45787971    0.84978986    0.05718889    0.12290000
opls_910-57    H    0.51238999    0.76455027    0.43606944    0.27160000
opls_146-58    H    0.62229987    0.77404992    0.33886111    0.11590000
opls_146-59    H    0.74647995    0.84554016    0.18168056    0.12010000
opls_146-60    H    0.70877021    0.00759024    0.71446944    0.11470000
opls_146-61    H    0.58182020    0.93531014    0.89156944    0.11940000
opls_910-62    H    0.82921999    0.02077023    0.67996944    0.27170000
opls_144-63    H    0.82299001    0.87848001    0.72631111    0.10810000
opls_144-64    H    0.15021010    0.60808993    0.05718889    0.12290000
opls_910-65    H    0.23545005    0.74784013    0.43606944    0.27160000
opls_146-66    H    0.22595022    0.84825008    0.33886111    0.11590000
opls_146-67    H    0.15445996    0.90094022    0.18168056    0.12010000
opls_146-68    H    0.99241022    0.70118021    0.71446944    0.11480000
opls_146-69    H    0.06468988    0.64650983    0.89156944    0.11940000
opls_910-70    H    0.97923017    0.80845019    0.67996944    0.27160000
opls_144-71    H    0.12152018    0.94450993    0.72631111    0.10810000
