#======================================================================
# Crystal Data Generated By AuToFF
#----------------------------------------------------------------------

data_AuToFF_phase_1

_cell_length_a                         37.3311
_cell_length_b                         37.3087
_cell_length_c                         3.5200
_cell_angle_alpha                      90.04
_cell_angle_beta                       89.99
_cell_angle_gamma                      119.96
_symmetry_space_group_name_H-M_alt     'P 1'
_symmetry_space_group_IT_number        1

loop_
_space_group_symop_operation_xyz
   'x, y, z'

loop_
   _atom_site_label
   _atom_site_type_symbol
   _atom_site_fract_x
   _atom_site_fract_y
   _atom_site_fract_z
   _atom_site_charge
opls_700-0    C    0.47744007    0.51241002    0.02725000    -0.03310000
opls_166-1    C    0.46503991    0.46985988    0.00444886    0.21720000
opls_145-2    C    0.49323004    0.45685009    0.09590909    -0.23890000
opls_700-3    C    0.53370986    0.48491988    0.21711932    -0.03630000
opls_166-4    C    0.54622009    0.52755999    0.23507102    0.21770000
opls_145-5    C    0.51781011    0.54046007    0.14932102    -0.24740000
opls_181-6    C    0.62010995    0.56421003    0.13853977    -0.19440000
opls_181-7    C    0.39071986    0.43334005    0.07576136    -0.18740000
opls_142-8    C    0.56203003    0.46933996    0.32313068    0.08030000
opls_142-9    C    0.44939995    0.52803996    0.91580966    0.07150000
opls_145-10    C    0.43228995    0.58347993    0.93861080    0.19720000
opls_145-11    C    0.57608002    0.41247997    0.36226989    0.19390000
opls_145-12    C    0.55798984    0.37121984    0.47813920    -0.16010000
opls_145-13    C    0.58165999    0.35183010    0.50790057    -0.12820000
opls_700-14    C    0.62387000    0.37300005    0.40907955    0.06930000
opls_145-15    C    0.64193991    0.41463983    0.29371875    -0.12830000
opls_145-16    C    0.61842007    0.43423011    0.27315909    -0.16350000
opls_145-17    C    0.44834989    0.62507988    0.03430114    -0.16010000
opls_145-18    C    0.42504008    0.64463004    0.98207102    -0.12810000
opls_700-19    C    0.38492007    0.62301002    0.82663920    0.06940000
opls_145-20    C    0.36891996    0.58106995    0.72952841    -0.12770000
opls_145-21    C    0.39199002    0.56134986    0.78882955    -0.16880000
opls_700-22    C    0.64816980    0.35104984    0.40061932    0.07150000
opls_700-23    C    0.36014999    0.64400002    0.75813920    0.06970000
opls_145-24    C    0.69062998    0.37234985    0.46396023    -0.10360000
opls_145-25    C    0.31337988    0.68213994    0.59067045    -0.16330000
opls_700-26    C    0.48426996    0.95610002    0.76680966    -0.03650000
opls_166-27    C    0.52633006    0.98739005    0.74332955    0.21720000
opls_145-28    C    0.53815003    0.02851990    0.82859091    -0.24690000
opls_700-29    C    0.50986024    0.04048014    0.95321875    -0.05750000
opls_166-30    C    0.46775016    0.01015012    0.98103977    0.27200000
opls_145-31    C    0.45518997    0.96694980    0.89000000    -0.21530000
opls_181-32    C    0.43070019    0.04742004    0.91196023    -0.19410000
opls_181-33    C    0.56515986    0.95205994    0.82936080    -0.19440000
opls_142-34    C    0.52512994    0.08418003    0.05986080    0.07180000
opls_142-35    C    0.47025989    0.91259997    0.66003125    0.07180000
opls_145-36    C    0.41440003    0.83995003    0.66973864    0.19500000
opls_145-37    C    0.58126990    0.15642999    0.01775000    0.20300000
opls_145-38    C    0.62137994    0.18081987    0.88125000    -0.17160000
opls_145-39    C    0.64252997    0.22359007    0.93415057    -0.16830000
opls_700-40    C    0.62622990    0.24314985    0.15382102    0.06460000
opls_145-41    C    0.58470009    0.21853994    0.27723864    -0.13040000
opls_145-42    C    0.56219002    0.17589995    0.20323864    -0.17350000
opls_145-43    C    0.37316998    0.81475994    0.77534091    -0.17220000
opls_145-44    C    0.35443001    0.77183997    0.75490057    -0.11770000
opls_700-45    C    0.37631977    0.75272985    0.61932102    0.06960000
opls_145-46    C    0.41756989    0.77817982    0.50153125    -0.12880000
opls_145-47    C    0.43659991    0.82135003    0.52944886    -0.17280000
opls_700-48    C    0.65158006    0.28838007    0.25846875    -0.02510000
opls_700-49    C    0.35644992    0.70666992    0.62625852    0.06990000
opls_145-50    C    0.62945017    0.30967012    0.29209943    -0.16680000
opls_145-51    C    0.31660987    0.62102989    0.75915909    -0.17590000
opls_700-52    C    0.04542983    0.53207985    0.83023011    -0.06110000
opls_166-53    C    0.01745002    0.54719992    0.83788920    0.27680000
opls_145-54    C    0.97357987    0.51881991    0.93173011    -0.20690000
opls_700-55    C    0.95902988    0.47726004    0.02369034    -0.05170000
opls_166-56    C    0.98682981    0.46194999    0.00740057    0.27180000
opls_145-57    C    0.03065004    0.49039005    0.91802841    -0.21410000
opls_181-58    C    0.94646995    0.38829000    0.89450000    -0.19440000
opls_181-59    C    0.05815995    0.62094010    0.94338920    -0.19440000
opls_142-60    C    0.91526984    0.45043983    0.13715909    0.07120000
opls_142-61    C    0.08983985    0.55900990    0.73748011    0.07080000
opls_145-62    C    0.15954995    0.56980986    0.72050852    0.19380000
opls_145-63    C    0.84658984    0.43904984    0.26032102    0.19690000
opls_145-64    C    0.81830996    0.45099009    0.13969886    -0.17010000
opls_145-65    C    0.77565011    0.42370010    0.17707955    -0.12510000
opls_700-66    C    0.76059010    0.38448009    0.34782955    0.06330000
opls_145-67    C    0.78925985    0.37599992    0.51003977    -0.18750000
opls_145-68    C    0.83157006    0.40149986    0.45611932    -0.15820000
opls_145-69    C    0.18185991    0.55064983    0.60828977    -0.16330000
opls_145-70    C    0.22503013    0.57325008    0.58434091    -0.12720000
opls_700-71    C    0.24684995    0.61549001    0.68236080    0.06770000
opls_145-72    C    0.22419002    0.63444010    0.80048011    -0.12770000
opls_145-73    C    0.18108001    0.61195010    0.81778977    -0.16540000
opls_700-74    C    0.71530991    0.35451999    0.38673011    -0.02380000
opls_700-75    C    0.29292006    0.63966998    0.67144034    0.07050000
opls_166-76    C    0.69598003    0.31064986    0.31198011    0.18590000
opls_145-77    C    0.37965991    0.68705984    0.69632955    -0.17460000
opls_907-78    C    0.72539990    0.23081992    0.36686080    -0.10010000
opls_158-79    C    0.74308005    0.27796011    0.37938920    0.17450000
opls_136-80    C    0.78831013    0.29612008    0.25496023    -0.26540000
opls_275-81    C    0.79359010    0.25972006    0.12992045    0.01840000
opls_267-82    C    0.83367005    0.26151991    0.24376989    0.56170000
opls_179-83    O    0.58546990    0.55803991    0.36171875    -0.19760000
opls_179-84    O    0.42622015    0.43966001    0.86636080    -0.20230000
opls_179-85    O    0.43712011    0.01812007    0.11851136    -0.20460000
opls_179-86    O    0.55755983    0.97994993    0.61242045    -0.19320000
opls_179-87    O    0.97639974    0.42177982    0.11963920    -0.19310000
opls_179-88    O    0.02795017    0.58725009    0.72194886    -0.20210000
opls_179-89    O    0.71930008    0.29278004    0.16834091    -0.26410000
opls_268-90    O    0.83863006    0.22740009    0.16948864    -0.49470000
opls_269-91    O    0.86192011    0.29267002    0.38796023    -0.49000000
opls_750-92    N    0.45734983    0.56488002    0.01350000    -0.33240000
opls_750-93    N    0.55003993    0.43010982    0.30153977    -0.33250000
opls_750-94    N    0.43246981    0.88368983    0.73111080    -0.33250000
opls_750-95    N    0.56130017    0.11272011    0.94703977    -0.34430000
opls_750-96    N    0.11553015    0.54515004    0.76436080    -0.33970000
opls_750-97    N    0.88970991    0.46444995    0.16655114    -0.33440000
opls_901-98    N    0.75675013    0.22098001    0.23632955    -0.37920000
opls_146-99    H    0.48300988    0.42418997    0.07184091    0.11550000
opls_146-100    H    0.52796002    0.57311999    0.17078977    0.11880000
opls_185-101    H    0.63249987    0.59379987    0.98107955    0.09040000
opls_185-102    H    0.61230978    0.53864988    0.93476989    0.09040000
opls_185-103    H    0.64481003    0.56638000    0.32796023    0.07400000
opls_185-104    H    0.37684996    0.40290990    0.22025000    0.07460000
opls_185-105    H    0.36743977    0.43301986    0.87836080    0.07420000
opls_185-106    H    0.39791990    0.45767985    0.28957955    0.08390000
opls_144-107    H    0.59299985    0.49073983    0.41846023    0.12400000
opls_144-108    H    0.42208002    0.50810993    0.75455114    0.10400000
opls_146-109    H    0.52535010    0.35398990    0.54561932    0.12060000
opls_146-110    H    0.56677000    0.32008992    0.60526989    0.12030000
opls_146-111    H    0.67380002    0.43167012    0.20026989    0.12030000
opls_146-112    H    0.63289994    0.46560990    0.16790909    0.12380000
opls_146-113    H    0.47894996    0.64230000    0.15717898    0.12020000
opls_146-114    H    0.43839005    0.67637983    0.07413068    0.12280000
opls_146-115    H    0.33880984    0.56334992    0.59888920    0.12410000
opls_146-116    H    0.37789997    0.52903984    0.71380966    0.12080000
opls_146-117    H    0.70522994    0.40440988    0.55117898    0.12250000
opls_146-118    H    0.29554996    0.69637994    0.50496023    0.12500000
opls_146-119    H    0.57058993    0.05141990    0.80419886    0.12250000
opls_146-120    H    0.42277996    0.94400985    0.91388068    0.12270000
opls_185-121    H    0.45471023    0.06434013    0.69415909    0.07400000
opls_185-122    H    0.43102012    0.07066007    0.11000852    0.07370000
opls_185-123    H    0.39982009    0.03106017    0.77498011    0.07450000
opls_185-124    H    0.59506000    0.96984993    0.98107102    0.07450000
opls_185-125    H    0.56767995    0.93004003    0.63463068    0.07460000
opls_185-126    H    0.54023990    0.93365991    0.03615057    0.07460000
opls_144-127    H    0.50602003    0.09198990    0.22851989    0.10740000
opls_144-128    H    0.49200989    0.90511006    0.53348011    0.10210000
opls_146-129    H    0.63586008    0.16674013    0.71994034    0.11530000
opls_146-130    H    0.67125022    0.24135011    0.79038068    0.24610000
opls_146-131    H    0.56980987    0.23143984    0.44823864    0.12410000
opls_146-132    H    0.53076007    0.15862993    0.30542898    0.12280000
opls_146-133    H    0.35582016    0.82858007    0.88657102    0.12030000
opls_146-134    H    0.32318012    0.75375007    0.86071023    0.12380000
opls_146-135    H    0.43531997    0.76493994    0.38830114    0.12380000
opls_146-136    H    0.46850976    0.83959979    0.44305966    0.11660000
opls_146-137    H    0.59724005    0.29436008    0.21021875    0.12380000
opls_146-138    H    0.30100987    0.58881987    0.84150000    0.12330000
opls_146-139    H    0.95280992    0.53120000    0.93325000    0.11840000
opls_146-140    H    0.05128004    0.47786004    0.91821023    0.12290000
opls_185-141    H    0.96163019    0.37290006    0.74975852    0.07470000
opls_185-142    H    0.93135015    0.39822008    0.68126989    0.07490000
opls_185-143    H    0.92192010    0.36516988    0.08159091    0.07480000
opls_185-144    H    0.08192995    0.64439004    0.75263920    0.07480000
opls_185-145    H    0.07399013    0.61127011    0.15132102    0.07490000
opls_185-146    H    0.04294999    0.63583991    0.09530114    0.07450000
opls_144-147    H    0.90401995    0.41811992    0.18153125    0.10750000
opls_144-148    H    0.10112992    0.59060988    0.65165909    0.10180000
opls_146-149    H    0.82917980    0.48021984    0.99488920    0.11830000
opls_146-150    H    0.75460989    0.43284985    0.06148864    0.11950000
opls_146-151    H    0.77837004    0.35093989    0.69942898    0.25110000
opls_146-152    H    0.85227008    0.39261994    0.58473864    0.11950000
opls_146-153    H    0.16566998    0.51809997    0.53642898    0.12250000
opls_146-154    H    0.24116009    0.55763996    0.48603977    0.11980000
opls_146-155    H    0.23972016    0.66642004    0.89232102    0.12000000
opls_146-156    H    0.16476985    0.62708990    0.92323011    0.12300000
opls_146-157    H    0.41289997    0.70551009    0.70888068    0.10030000
opls_140-158    H    0.69740001    0.21396006    0.20057102    0.11190000
opls_140-159    H    0.71485013    0.21699997    0.64480114    0.11200000
opls_185-160    H    0.74440003    0.28600005    0.66182955    0.11420000
opls_140-161    H    0.81034998    0.31345013    0.48221023    0.10350000
opls_140-162    H    0.79804980    0.31999989    0.04146023    0.11860000
opls_140-163    H    0.79417984    0.25966001    0.82911932    0.10990000
opls_910-164    H    0.76318007    0.20557003    0.45069034    0.27390000
opls_270-165    H    0.86667999    0.23204009    0.25155114    0.30090000
