#======================================================================
# Crystal Data Generated By AuToFF
#----------------------------------------------------------------------

data_AuToFF_phase_1

_cell_length_a                         26.8350
_cell_length_b                         21.7360
_cell_length_c                         9.3156
_cell_angle_alpha                      90.00
_cell_angle_beta                       118.35
_cell_angle_gamma                      90.00
_symmetry_space_group_name_H-M_alt     'P 1'
_symmetry_space_group_IT_number        1

loop_
_space_group_symop_operation_xyz
   'x, y, z'

loop_
   _atom_site_label
   _atom_site_type_symbol
   _atom_site_fract_x
   _atom_site_fract_y
   _atom_site_fract_z
   _atom_site_charge
opls_700-0    C    0.37909983    0.10365983    0.29390009    0.06540000
opls_145-1    C    0.37932990    0.03937017    0.29421968    -0.16910000
opls_700-2    C    0.41536972    0.00501012    0.25578953    -0.02350000
opls_166-3    C    0.45311988    0.03823013    0.21895001    0.19760000
opls_700-4    C    0.45912018    0.10241995    0.24150066    -0.02140000
opls_145-5    C    0.42093006    0.13463011    0.27420014    -0.07370000
opls_700-6    C    0.41563989    0.93627990    0.25885004    -0.02350000
opls_166-7    C    0.36994988    0.90111014    0.24981977    0.19760000
opls_700-8    C    0.37375015    0.83657021    0.26495031    -0.02260000
opls_145-9    C    0.42239004    0.80688995    0.28395985    -0.07670000
opls_700-10    C    0.46723987    0.84019001    0.28738996    0.06690000
opls_145-11    C    0.46360009    0.90422985    0.27905987    -0.14710000
opls_700-12    C    0.33449983    0.13875000    0.30891963    0.06450000
opls_700-13    C    0.50726980    0.13501012    0.23960995    0.06630000
opls_700-14    C    0.32867977    0.79947000    0.27314988    0.07040000
opls_700-15    C    0.51725980    0.80804978    0.29642998    0.06610000
opls_145-16    C    0.27130011    0.80630015    0.16137004    -0.11640000
opls_145-17    C    0.23072014    0.77366995    0.18081017    -0.14260000
opls_700-18    C    0.24652010    0.73256993    0.31050050    0.06500000
opls_145-19    C    0.30397991    0.72339989    0.41707053    -0.13620000
opls_145-20    C    0.34444005    0.75676021    0.39931983    -0.13710000
opls_145-21    C    0.53459997    0.75123022    0.37489067    -0.13050000
opls_145-22    C    0.57990020    0.72032021    0.37711073    -0.12900000
opls_700-23    C    0.60914990    0.74501012    0.30020041    0.06120000
opls_145-24    C    0.59217018    0.80206984    0.22287048    -0.13600000
opls_145-25    C    0.54709005    0.83309993    0.22147014    -0.14260000
opls_145-26    C    0.31858993    0.19664014    0.23542966    -0.13670000
opls_145-27    C    0.27471002    0.22888020    0.23778999    -0.13600000
opls_700-28    C    0.24498001    0.20433014    0.31338047    0.06210000
opls_145-29    C    0.26135975    0.14692998    0.38927957    -0.12930000
opls_145-30    C    0.30532015    0.11471016    0.38698022    -0.12990000
opls_145-31    C    0.56121008    0.10839023    0.31572983    -0.13050000
opls_145-32    C    0.60715017    0.13914980    0.32221069    -0.13740000
opls_700-33    C    0.60059000    0.19775994    0.25424037    0.06500000
opls_145-34    C    0.54695986    0.22478009    0.18025028    -0.14260000
opls_145-35    C    0.50084022    0.19376012    0.17256059    -0.13620000
opls_142-36    C    0.19715997    0.23812983    0.30895012    0.07080000
opls_142-37    C    0.64948992    0.23028984    0.26228014    0.07300000
opls_142-38    C    0.20400982    0.69968992    0.33643003    0.07290000
opls_700-39    C    0.86367013    0.59544994    0.22844014    0.06580000
opls_145-40    C    0.86705992    0.53201003    0.25358045    -0.10950000
opls_700-41    C    0.91480011    0.49744019    0.28182030    -0.02480000
opls_166-42    C    0.96224008    0.53104987    0.29774006    0.18930000
opls_700-43    C    0.95725001    0.59319010    0.25219962    -0.02010000
opls_145-44    C    0.90761004    0.62475018    0.21570043    -0.07560000
opls_700-45    C    0.91457995    0.42854021    0.28913063    -0.02490000
opls_166-46    C    0.87268001    0.39331018    0.30157026    0.15010000
opls_700-47    C    0.87600010    0.32879003    0.31223995    -0.02240000
opls_145-48    C    0.92079004    0.29899015    0.30612992    -0.10040000
opls_700-49    C    0.96081015    0.33194010    0.28248022    0.06500000
opls_145-50    C    0.95647007    0.39581984    0.27218989    -0.18030000
opls_700-51    C    0.81529997    0.63111980    0.21985023    0.06720000
opls_700-52    C    0.00321017    0.62569010    0.23701054    0.06600000
opls_700-53    C    0.83154984    0.29110002    0.32194965    0.06530000
opls_700-54    C    0.00749988    0.29922985    0.27238994    0.06450000
opls_145-55    C    0.80375984    0.31063995    0.40815005    -0.13670000
opls_145-56    C    0.75904023    0.27721982    0.40232057    -0.18130000
opls_145-57    C    0.74240011    0.22237992    0.31399038    0.21010000
opls_145-58    C    0.77261001    0.20013020    0.23763996    -0.19520000
opls_145-59    C    0.81600021    0.23485002    0.23958068    -0.13050000
opls_142-60    C    0.00172001    0.23739004    0.22556017    -0.14260000
opls_142-61    C    0.04588992    0.20547985    0.22395978    -0.14230000
opls_261-62    C    0.09705984    0.23519001    0.26466000    0.18490000
opls_142-63    C    0.10310003    0.29720004    0.30956978    -0.16750000
opls_142-64    C    0.05896979    0.32843992    0.31405991    -0.13310000
opls_145-65    C    0.82162986    0.69373988    0.25939041    -0.13230000
opls_145-66    C    0.77829000    0.72729021    0.26122013    -0.18410000
opls_145-67    C    0.72747009    0.69846982    0.22839989    0.21460000
opls_145-68    C    0.72015994    0.63623022    0.18566014    -0.17060000
opls_145-69    C    0.76344001    0.60335986    0.18087970    -0.11640000
opls_145-70    C    0.05981007    0.62184993    0.35628001    -0.13300000
opls_145-71    C    0.10151010    0.65179978    0.33643003    -0.18150000
opls_145-72    C    0.08749010    0.68585986    0.19486972    0.18540000
opls_145-73    C    0.03058024    0.69157021    0.07796057    -0.18790000
opls_145-74    C    0.98911992    0.66168982    0.09890961    -0.13620000
opls_142-75    C    0.65621004    0.71123988    0.29991986    0.07080000
opls_181-76    C    0.77445992    0.41487992    0.15399994    -0.20010000
opls_181-77    C    0.03989998    0.48381993    0.52079961    -0.19840000
opls_700-78    C    0.37910012    0.10365983    0.79390070    0.06540000
opls_145-79    C    0.37932981    0.03937017    0.79422029    -0.16910000
opls_700-80    C    0.41537000    0.00501012    0.75579014    -0.02350000
opls_166-81    C    0.45312017    0.03823013    0.71895062    0.19760000
opls_700-82    C    0.45911989    0.10241995    0.74150005    -0.02140000
opls_145-83    C    0.42092997    0.13463011    0.77420075    -0.07370000
opls_700-84    C    0.41564018    0.93627990    0.75885065    -0.02350000
opls_166-85    C    0.36994980    0.90111014    0.74982038    0.19760000
opls_700-86    C    0.37375006    0.83657021    0.76495092    -0.02260000
opls_145-87    C    0.42238995    0.80688995    0.78396046    -0.07670000
opls_700-88    C    0.46724016    0.84019001    0.78739057    0.06690000
opls_145-89    C    0.46360000    0.90422985    0.77906048    -0.14710000
opls_700-90    C    0.33450012    0.13875000    0.80892024    0.06450000
opls_700-91    C    0.50727009    0.13501012    0.73961056    0.06630000
opls_700-92    C    0.32868005    0.79947000    0.77315049    0.07040000
opls_700-93    C    0.51726008    0.80804978    0.79643059    0.06610000
opls_145-94    C    0.27130003    0.80630015    0.66137065    -0.11640000
opls_145-95    C    0.23072005    0.77366995    0.68081078    -0.14260000
opls_700-96    C    0.24651982    0.73256993    0.81049989    0.06500000
opls_145-97    C    0.30398000    0.72339989    0.91706992    -0.13620000
opls_145-98    C    0.34443997    0.75676021    0.89932044    -0.13710000
opls_145-99    C    0.53460005    0.75123022    0.87489006    -0.13050000
opls_145-100    C    0.57989992    0.72032021    0.87711012    -0.12900000
opls_700-101    C    0.60914999    0.74501012    0.80019981    0.06120000
opls_145-102    C    0.59216990    0.80206984    0.72286987    -0.13600000
opls_145-103    C    0.54708997    0.83309993    0.72147075    -0.14260000
opls_145-104    C    0.31858985    0.19664014    0.73543027    -0.13670000
opls_145-105    C    0.27470993    0.22888020    0.73779060    -0.13600000
opls_700-106    C    0.24497972    0.20433014    0.81337987    0.06210000
opls_145-107    C    0.26136004    0.14692998    0.88928018    -0.12930000
opls_145-108    C    0.30532007    0.11471016    0.88698083    -0.12990000
opls_145-109    C    0.56120999    0.10839023    0.81573044    -0.13050000
opls_145-110    C    0.60714988    0.13914980    0.82221008    -0.13740000
opls_700-111    C    0.60058971    0.19775994    0.75423976    0.06500000
opls_145-112    C    0.54695995    0.22478009    0.68024967    -0.14260000
opls_145-113    C    0.50083994    0.19376012    0.67255998    -0.13620000
opls_142-114    C    0.19715989    0.23812983    0.80895073    0.07080000
opls_142-115    C    0.64949020    0.23028984    0.76228075    0.07300000
opls_142-116    C    0.20401011    0.69968992    0.83643064    0.07290000
opls_700-117    C    0.86367005    0.59544994    0.72844075    0.06580000
opls_145-118    C    0.86706001    0.53201003    0.75357984    -0.10950000
opls_700-119    C    0.91480002    0.49744019    0.78182091    -0.02480000
opls_166-120    C    0.96224000    0.53104987    0.79774067    0.18930000
opls_700-121    C    0.95724992    0.59319010    0.75220023    -0.02010000
opls_145-122    C    0.90760975    0.62475018    0.71569982    -0.07560000
opls_700-123    C    0.91458004    0.42854021    0.78913002    -0.02490000
opls_166-124    C    0.87267993    0.39331018    0.80157087    0.15010000
opls_700-125    C    0.87600001    0.32879003    0.81224056    -0.02240000
opls_145-126    C    0.92078996    0.29899015    0.80613053    -0.10040000
opls_700-127    C    0.96081007    0.33194010    0.78248083    0.06500000
opls_145-128    C    0.95646998    0.39581984    0.77219050    -0.18030000
opls_700-129    C    0.81529989    0.63111980    0.71985084    0.06720000
opls_700-130    C    0.00320988    0.62569010    0.73700993    0.06600000
opls_700-131    C    0.83155013    0.29110002    0.82195026    0.06530000
opls_700-132    C    0.00750017    0.29922985    0.77239055    0.06450000
opls_145-133    C    0.80376012    0.31063995    0.90815066    -0.13660000
opls_145-134    C    0.75903994    0.27721982    0.90231996    -0.18130000
opls_145-135    C    0.74239982    0.22237992    0.81398977    0.21020000
opls_145-136    C    0.77260992    0.20013020    0.73764057    -0.19520000
opls_145-137    C    0.81599992    0.23485002    0.73958007    -0.13050000
opls_142-138    C    0.00171993    0.23739004    0.72556078    -0.14260000
opls_142-139    C    0.04588984    0.20547985    0.72396039    -0.14230000
opls_261-140    C    0.09706013    0.23519001    0.76466061    0.18490000
opls_142-141    C    0.10309995    0.29720004    0.80957039    -0.16750000
opls_142-142    C    0.05897008    0.32843992    0.81406052    -0.13310000
opls_145-143    C    0.82162989    0.69373988    0.75940078    -0.13230000
opls_145-144    C    0.77828992    0.72729021    0.76122074    -0.18410000
opls_145-145    C    0.72747001    0.69846982    0.72840050    0.21460000
opls_145-146    C    0.72016023    0.63623022    0.68566075    -0.17060000
opls_145-147    C    0.76343992    0.60335986    0.68088031    -0.11640000
opls_145-148    C    0.05980999    0.62184993    0.85628062    -0.13300000
opls_145-149    C    0.10151002    0.65179978    0.83643064    -0.18150000
opls_145-150    C    0.08749001    0.68585986    0.69487033    0.18540000
opls_145-151    C    0.03057996    0.69157021    0.57795996    -0.18790000
opls_145-152    C    0.98911983    0.66168982    0.59891022    -0.13620000
opls_142-153    C    0.65620995    0.71123988    0.79992047    0.07080000
opls_181-154    C    0.77445983    0.41487992    0.65400055    -0.20010000
opls_181-155    C    0.03989990    0.48381993    0.02080022    -0.19840000
opls_167-156    O    0.48307981    0.00899015    0.15542956    -0.43600000
opls_167-157    O    0.32194992    0.92963011    0.22987952    -0.42530000
opls_179-158    O    0.01596982    0.50456984    0.35400995    -0.21460000
opls_179-159    O    0.82609988    0.42169994    0.30499061    -0.21470000
opls_167-160    O    0.48308010    0.00899015    0.65543017    -0.43610000
opls_167-161    O    0.32194983    0.92963011    0.72988013    -0.42540000
opls_179-162    O    0.01597011    0.50456984    0.85401056    -0.21450000
opls_179-163    O    0.82609997    0.42169994    0.80499000    -0.21470000
opls_750-164    N    0.69665996    0.20154996    0.30582009    -0.18530000
opls_424-165    N    0.16636973    0.21421007    0.36709974    -0.24850000
opls_750-166    N    0.15165017    0.71720004    0.26162023    -0.27380000
opls_750-167    N    0.68372996    0.73394001    0.22984049    -0.28950000
opls_750-168    N    0.69665987    0.20154996    0.80582070    -0.18520000
opls_424-169    N    0.16637002    0.21421007    0.86710035    -0.24850000
opls_750-170    N    0.15165009    0.71720004    0.76162084    -0.27380000
opls_750-171    N    0.68373004    0.73394001    0.72983988    -0.28950000
opls_146-172    H    0.34909993    0.01554012    0.32137024    0.10380000
opls_146-173    H    0.42492979    0.18452981    0.28790960    0.10270000
opls_146-174    H    0.42443990    0.75676021    0.29218016    0.10130000
opls_146-175    H    0.50052004    0.92971982    0.29272053    0.10450000
opls_146-176    H    0.25828997    0.83658999    0.05601983    0.10390000
opls_146-177    H    0.18585014    0.77951003    0.09479031    0.10370000
opls_146-178    H    0.31668979    0.69076003    0.51760005    0.10380000
opls_146-179    H    0.38916993    0.75078993    0.48639972    0.10390000
opls_146-180    H    0.51258000    0.73125000    0.43667045    0.10400000
opls_146-181    H    0.59319989    0.67608990    0.43979073    0.10300000
opls_146-182    H    0.61499987    0.82153018    0.16283992    0.10130000
opls_146-183    H    0.53386007    0.87714989    0.15813022    0.10400000
opls_146-184    H    0.34001988    0.21607011    0.17137981    0.10390000
opls_146-185    H    0.26219021    0.27353009    0.17701046    0.10300000
opls_146-186    H    0.23843998    0.12764998    0.44924061    0.10140000
opls_146-187    H    0.31732003    0.06998022    0.44723036    0.10130000
opls_146-188    H    0.56731013    0.06349006    0.37439055    0.10300000
opls_146-189    H    0.64927003    0.11849006    0.38225955    0.10330000
opls_146-190    H    0.54154998    0.27069010    0.12705066    0.10460000
opls_146-191    H    0.45901992    0.21509983    0.11299965    0.10270000
opls_144-192    H    0.18782007    0.28425009    0.24884026    0.04280000
opls_144-193    H    0.64370996    0.27982011    0.22612982    0.04240000
opls_168-194    H    0.50192003    0.03908999    0.11984035    0.33350000
opls_168-195    H    0.29672998    0.90025994    0.24218985    0.33620000
opls_144-196    H    0.21941990    0.66032987    0.42375021    0.04250000
opls_146-197    H    0.83163015    0.50888986    0.25637016    0.10700000
opls_146-198    H    0.90434994    0.67332996    0.18278017    0.10270000
opls_146-199    H    0.92450001    0.24914014    0.32102015    0.10230000
opls_146-200    H    0.98649010    0.42138020    0.24721060    0.10230000
opls_146-201    H    0.81696976    0.35304978    0.47922966    0.10390000
opls_146-202    H    0.73695974    0.29308980    0.46826966    0.10380000
opls_146-203    H    0.76006008    0.15694010    0.17010023    0.10210000
opls_146-204    H    0.83769008    0.21850985    0.17307047    0.10340000
opls_144-205    H    0.96168996    0.21361014    0.18959038    0.10330000
opls_144-206    H    0.04068982    0.15724006    0.18738008    0.10230000
opls_144-207    H    0.14331020    0.32059993    0.34495041    0.10470000
opls_144-208    H    0.06502994    0.37646991    0.35322073    0.10390000
opls_146-209    H    0.86179000    0.71665992    0.29154951    0.10250000
opls_146-210    H    0.78427007    0.77589989    0.29430995    0.10230000
opls_146-211    H    0.67989995    0.61373022    0.15464034    0.10380000
opls_146-212    H    0.75659992    0.55486980    0.14597969    0.10260000
opls_146-213    H    0.07137013    0.59597994    0.46794031    0.10150000
opls_146-214    H    0.14527000    0.64929978    0.43345991    0.10390000
opls_146-215    H    0.01942013    0.71876978    0.96843007    0.10230000
opls_146-216    H    0.94488990    0.66538001    0.00525983    0.10300000
opls_144-217    H    0.66736014    0.66592979    0.36414048    0.04340000
opls_185-218    H    0.76384002    0.36601997    0.12293989    0.09010000
opls_185-219    H    0.77796005    0.43751978    0.05318011    0.09200000
opls_185-220    H    0.74055004    0.43691020    0.16934029    0.10810000
opls_185-221    H    0.08041986    0.46164980    0.55177062    0.11150000
opls_185-222    H    0.01200991    0.45057002    0.53675962    0.09580000
opls_185-223    H    0.04726978    0.52312983    0.60311979    0.09300000
opls_146-224    H    0.34910021    0.01554012    0.82137085    0.10380000
opls_146-225    H    0.42493008    0.18452981    0.78791021    0.10270000
opls_146-226    H    0.42444019    0.75676021    0.79218077    0.10130000
opls_146-227    H    0.50051976    0.92971982    0.79271992    0.10450000
opls_146-228    H    0.25828988    0.83658999    0.55602044    0.10390000
opls_146-229    H    0.18584985    0.77951003    0.59478970    0.10370000
opls_146-230    H    0.31669008    0.69076003    0.01760066    0.10380000
opls_146-231    H    0.38916984    0.75078993    0.98640032    0.10390000
opls_146-232    H    0.51257971    0.73125000    0.93666984    0.10400000
opls_146-233    H    0.59319997    0.67608990    0.93979012    0.10300000
opls_146-234    H    0.61500016    0.82153018    0.66284053    0.10130000
opls_146-235    H    0.53385998    0.87714989    0.65813083    0.10400000
opls_146-236    H    0.34002017    0.21607011    0.67138042    0.10390000
opls_146-237    H    0.26218993    0.27353009    0.67700985    0.10300000
opls_146-238    H    0.23844006    0.12764998    0.94924000    0.10130000
opls_146-239    H    0.31731995    0.06998022    0.94723097    0.10130000
opls_146-240    H    0.56730985    0.06349006    0.87438994    0.10300000
opls_146-241    H    0.64926994    0.11849006    0.88226016    0.10330000
opls_146-242    H    0.54155007    0.27069010    0.62705005    0.10470000
opls_146-243    H    0.45901996    0.21509983    0.61301002    0.10270000
opls_144-244    H    0.18781999    0.28425009    0.74884087    0.04280000
opls_144-245    H    0.64370987    0.27982011    0.72613043    0.04240000
opls_168-246    H    0.50191975    0.03908999    0.61983974    0.33350000
opls_168-247    H    0.29672990    0.90025994    0.74219046    0.33620000
opls_144-248    H    0.21942019    0.66032987    0.92375082    0.04250000
opls_146-249    H    0.83162981    0.50888986    0.75638053    0.10700000
opls_146-250    H    0.90435022    0.67332996    0.68278078    0.10270000
opls_146-251    H    0.92449992    0.24914014    0.82102076    0.10230000
opls_146-252    H    0.98648981    0.42138020    0.74720999    0.10230000
opls_146-253    H    0.81697005    0.35304978    0.97923027    0.10390000
opls_146-254    H    0.73696003    0.29308980    0.96827027    0.10390000
opls_146-255    H    0.76006000    0.15694010    0.67010084    0.10210000
opls_146-256    H    0.83768979    0.21850985    0.67306986    0.10340000
opls_144-257    H    0.96169004    0.21361014    0.68958977    0.10330000
opls_144-258    H    0.04069011    0.15724006    0.68738069    0.10230000
opls_144-259    H    0.14330991    0.32059993    0.84494980    0.10470000
opls_144-260    H    0.06502978    0.37646991    0.85322988    0.10390000
opls_146-261    H    0.86178991    0.71665992    0.79155012    0.10250000
opls_146-262    H    0.78426998    0.77589989    0.79431056    0.10230000
opls_146-263    H    0.67990004    0.61373022    0.65463973    0.10390000
opls_146-264    H    0.75659996    0.55486980    0.64599005    0.10260000
opls_146-265    H    0.07137005    0.59597994    0.96794092    0.10150000
opls_146-266    H    0.14526991    0.64929978    0.93346052    0.10390000
opls_146-267    H    0.01942005    0.71876978    0.46843068    0.10230000
opls_146-268    H    0.94489018    0.66538001    0.50526044    0.10300000
opls_144-269    H    0.66735985    0.66592979    0.86413987    0.04340000
opls_185-270    H    0.76383994    0.36601997    0.62294050    0.09010000
opls_185-271    H    0.77795996    0.43751978    0.55318072    0.09200000
opls_185-272    H    0.74054975    0.43691020    0.66933968    0.10810000
opls_185-273    H    0.08041995    0.46164980    0.05177001    0.11150000
opls_185-274    H    0.01201019    0.45057002    0.03676023    0.09580000
opls_185-275    H    0.04727006    0.52312983    0.10312040    0.09300000
