#======================================================================
# Crystal Data Generated By AuToFF
#----------------------------------------------------------------------

data_AuToFF_phase_1

_cell_length_a                         30.2682
_cell_length_b                         30.2382
_cell_length_c                         3.7802
_cell_angle_alpha                      90.18
_cell_angle_beta                       89.89
_cell_angle_gamma                      120.06
_symmetry_space_group_name_H-M_alt     'P 1'
_symmetry_space_group_IT_number        1

loop_
_space_group_symop_operation_xyz
   'x, y, z'

loop_
   _atom_site_label
   _atom_site_type_symbol
   _atom_site_fract_x
   _atom_site_fract_y
   _atom_site_fract_z
   _atom_site_charge
opls_700-0    C    0.94773988    0.46068987    0.53920977    -0.10630000
opls_700-1    C    0.53926989    0.48780002    0.54179960    -0.10630000
opls_700-2    C    0.51282009    0.05168025    0.53545069    -0.10620000
opls_145-3    C    0.98503986    0.44894994    0.42963034    -0.22680000
opls_145-4    C    0.55063006    0.53628986    0.42237936    -0.22710000
opls_145-5    C    0.46415010    0.01416991    0.42045881    -0.22130000
opls_166-6    C    0.03683008    0.48617987    0.42490040    0.21750000
opls_166-7    C    0.51306994    0.55032003    0.40990112    0.21710000
opls_166-8    C    0.45011005    0.96254979    0.41009952    0.22280000
opls_234-9    C    0.89341002    0.41636997    0.55284140    0.45050000
opls_234-10    C    0.58383998    0.47837011    0.56858139    0.46900000
opls_234-11    C    0.52205998    0.10575007    0.54924898    0.46070000
opls_142-12    C    0.77467995    0.40454990    0.30682930    0.01350000
opls_142-13    C    0.59600991    0.37129991    0.32010910    0.01370000
opls_142-14    C    0.62935008    0.22543010    0.32019110    0.01270000
opls_700-15    C    0.71961007    0.36815002    0.29826887    0.06410000
opls_700-16    C    0.63202013    0.35217004    0.30344058    0.07280000
opls_700-17    C    0.64798003    0.28047004    0.30344058    0.06200000
opls_145-18    C    0.70071016    0.31492008    0.29827945    -0.16360000
opls_145-19    C    0.68522982    0.38644988    0.29784031    -0.16360000
opls_145-20    C    0.61368006    0.29937006    0.30163908    -0.15750000
opls_700-21    C    0.05231019    0.53667005    0.53174981    -0.10450000
opls_700-22    C    0.46283006    0.51550019    0.52040908    -0.10610000
opls_700-23    C    0.48504987    0.94731991    0.51948055    -0.10450000
opls_145-24    C    0.01499994    0.54840014    0.64159908    -0.22520000
opls_145-25    C    0.45144017    0.46694018    0.63808073    -0.22520000
opls_145-26    C    0.53368009    0.98481986    0.63534012    -0.22710000
opls_166-27    C    0.96329026    0.51109015    0.64895058    0.21700000
opls_166-28    C    0.48896027    0.45289020    0.65073092    0.21960000
opls_166-29    C    0.54772998    0.03648011    0.64574967    0.21960000
opls_234-30    C    0.10649001    0.58135003    0.51749917    0.45070000
opls_234-31    C    0.41828991    0.52513000    0.50326969    0.45080000
opls_234-32    C    0.47551990    0.89311989    0.50283055    0.45080000
opls_142-33    C    0.22557017    0.59475019    0.77227010    0.01450000
opls_142-34    C    0.40502018    0.63040011    0.77793121    0.01270000
opls_142-35    C    0.36981005    0.77457005    0.77169077    0.01450000
opls_700-36    C    0.28042986    0.63167993    0.79526107    0.06240000
opls_700-37    C    0.36829004    0.64856017    0.79757049    0.06270000
opls_700-38    C    0.35153996    0.71964008    0.79561026    0.06420000
opls_145-39    C    0.29888004    0.68483994    0.79840113    -0.16440000
opls_145-40    C    0.31519017    0.61384020    0.79911010    -0.16360000
opls_145-41    C    0.38618008    0.70121986    0.80027935    -0.16350000
opls_181-42    C    0.57351980    0.63345979    0.15715125    -0.18260000
opls_181-43    C    0.36656985    0.93961001    0.16511912    -0.18260000
opls_181-44    C    0.05953978    0.42481981    0.18746991    -0.18030000
opls_181-45    C    0.42828024    0.36949007    0.89986985    -0.18260000
opls_181-46    C    0.63099019    0.05979014    0.89912121    -0.18020000
opls_181-47    C    0.94059030    0.57179018    0.89962118    -0.17980000
opls_238-48    N    0.85702997    0.42688984    0.41732933    -0.24000000
opls_238-49    N    0.57411013    0.43162014    0.43196885    -0.23990000
opls_238-50    N    0.56962986    0.14294999    0.42722040    -0.23220000
opls_750-51    N    0.80630000    0.39050991    0.41425012    -0.10210000
opls_750-52    N    0.61039005    0.41711009    0.42983138    -0.09230000
opls_750-53    N    0.58321005    0.19348991    0.41859911    -0.10640000
opls_238-54    N    0.14331020    0.57119019    0.64906962    -0.23430000
opls_238-55    N    0.42832003    0.57163001    0.64597982    -0.23380000
opls_238-56    N    0.42878013    0.85657000    0.64086102    -0.23380000
opls_750-57    N    0.19371986    0.60844993    0.66433080    -0.11170000
opls_750-58    N    0.39146005    0.58530000    0.65806126    -0.11170000
opls_750-59    N    0.41514000    0.80600997    0.65616981    -0.08790000
opls_236-60    O    0.88368017    0.37445013    0.66984905    -0.42720000
opls_236-61    O    0.62490008    0.51079003    0.69682925    -0.43500000
opls_236-62    O    0.48842013    0.11434998    0.65155098    -0.43200000
opls_179-63    O    0.92494003    0.52074019    0.76739997    -0.19710000
opls_179-64    O    0.47957016    0.40531013    0.77543133    -0.20060000
opls_179-65    O    0.59552996    0.07508006    0.76568047    -0.19710000
opls_236-66    O    0.11564993    0.62333993    0.40612087    -0.42290000
opls_236-67    O    0.37679007    0.49307005    0.37932056    -0.42300000
opls_236-68    O    0.50785994    0.88372985    0.38379125    -0.43560000
opls_179-69    O    0.07523013    0.47623993    0.31200102    -0.19560000
opls_179-70    O    0.52241019    0.59798009    0.28663979    -0.19550000
opls_179-71    O    0.40235998    0.92412993    0.28840955    -0.20050000
opls_146-72    H    0.97179020    0.40998015    0.34762895    0.12240000
opls_146-73    H    0.58945988    0.56197988    0.33907116    0.12360000
opls_146-74    H    0.43836012    0.02719021    0.33858970    0.12680000
opls_910-75    H    0.86849014    0.46272998    0.32501891    0.24290000
opls_910-76    H    0.53868004    0.40745986    0.33187044    0.24290000
opls_910-77    H    0.59531983    0.13225989    0.35188007    0.26200000
opls_144-78    H    0.78755990    0.44418990    0.22903936    0.07150000
opls_144-79    H    0.55625003    0.34475000    0.24308895    0.06970000
opls_144-80    H    0.65673021    0.21281010    0.25447995    0.06970000
opls_146-81    H    0.69902982    0.42717984    0.29531133    0.11870000
opls_146-82    H    0.57299006    0.27235989    0.30289034    0.11870000
opls_146-83    H    0.72764005    0.30118994    0.29626896    0.12020000
opls_146-84    H    0.02822006    0.58739994    0.72207937    0.12610000
opls_146-85    H    0.41262025    0.44127019    0.72185981    0.12770000
opls_146-86    H    0.55950987    0.97187997    0.71770127    0.12360000
opls_910-87    H    0.13239012    0.53507017    0.73245983    0.28000000
opls_910-88    H    0.46366011    0.59551000    0.74864954    0.27480000
opls_910-89    H    0.40445996    0.86798014    0.73561047    0.24290000
opls_144-90    H    0.21309017    0.55484024    0.84006053    0.06970000
opls_144-91    H    0.44458011    0.65720016    0.85769990    0.06850000
opls_144-92    H    0.34289999    0.78748999    0.84476930    0.06970000
opls_146-93    H    0.30179997    0.57318989    0.79789058    0.11870000
opls_146-94    H    0.42680985    0.72847995    0.80013915    0.11740000
opls_146-95    H    0.27167002    0.69823000    0.79614992    0.11730000
opls_185-96    H    0.57144989    0.66616979    0.05844960    0.10720000
opls_185-97    H    0.33392990    0.90475984    0.06493077    0.10720000
opls_185-98    H    0.09461983    0.42619980    0.10297922    0.10690000
opls_185-99    H    0.58424007    0.61611989    0.94452910    0.09920000
opls_185-100    H    0.38354004    0.96801002    0.95504976    0.09930000
opls_185-101    H    0.03303000    0.41436007    0.96585083    0.10930000
opls_185-102    H    0.43043999    0.33688007    0.99933072    0.10800000
opls_185-103    H    0.64322028    0.04344013    0.68827939    0.11910000
opls_185-104    H    0.95704015    0.60014005    0.68826881    0.10170000
opls_185-105    H    0.40060013    0.35740007    0.68388013    0.10170000
opls_185-106    H    0.61355023    0.03206000    0.11248935    0.11110000
opls_185-107    H    0.96837015    0.58225992    0.11298933    0.11010000
opls_185-108    H    0.60164998    0.64553991    0.37014904    0.09900000
opls_185-109    H    0.41697001    0.38656004    0.11098149    0.09900000
opls_185-110    H    0.35454995    0.95519009    0.38224106    0.10170000
opls_185-111    H    0.04160987    0.39685000    0.39953124    0.10340000
opls_185-112    H    0.66356020    0.09486001    0.99720119    0.10690000
opls_185-113    H    0.90572994    0.56967991    0.99750012    0.10690000
