#======================================================================
# Crystal Data Generated By AuToFF
#----------------------------------------------------------------------

data_AuToFF_phase_1

_cell_length_a                         26.3800
_cell_length_b                         26.3000
_cell_length_c                         3.6600
_cell_angle_alpha                      78.54
_cell_angle_beta                       87.52
_cell_angle_gamma                      120.70
_symmetry_space_group_name_H-M_alt     'P 1'
_symmetry_space_group_IT_number        1

loop_
_space_group_symop_operation_xyz
   'x, y, z'

loop_
   _atom_site_label
   _atom_site_type_symbol
   _atom_site_fract_x
   _atom_site_fract_y
   _atom_site_fract_z
   _atom_site_charge
opls_145-0    C    0.39417999    0.81095021    0.51156986    -0.11950000
opls_523-1    C    0.36303000    0.74931021    0.50701946    -0.12310000
opls_700-2    C    0.39431993    0.72259997    0.39971135    -0.00190000
opls_523-3    C    0.45745986    0.75857997    0.30418960    -0.12110000
opls_145-4    C    0.48839038    0.82039030    0.30328971    -0.11810000
opls_700-5    C    0.45700009    0.84753012    0.39692961    0.11750000
opls_531-6    C    0.36130020    0.65784015    0.38236151    0.35780000
opls_142-7    C    0.48542001    0.43845999    0.36961019    -0.09340000
opls_141-8    C    0.54294008    0.45930007    0.22321896    -0.00430000
opls_145-9    C    0.53024007    0.35707017    0.23885957    -0.11570000
opls_523-10    C    0.55346017    0.31909001    0.26679024    -0.12340000
opls_700-11    C    0.61328014    0.34082018    0.32170074    0.00570000
opls_523-12    C    0.64908013    0.40125988    0.35256031    -0.13620000
opls_145-13    C    0.62583025    0.43918019    0.32539936    -0.12310000
opls_700-14    C    0.56620015    0.41762992    0.26750053    0.07330000
opls_531-15    C    0.63863982    0.30122996    0.33781960    0.35720000
opls_145-16    C    0.57856023    0.04864014    0.20601061    -0.12310000
opls_523-17    C    0.61479005    0.10945987    0.22117015    -0.11570000
opls_700-18    C    0.58886989    0.14309009    0.28751044    -0.00190000
opls_523-19    C    0.52595971    0.11486979    0.33088079    -0.11950000
opls_145-20    C    0.48968009    0.05389017    0.31911143    -0.12310000
opls_700-21    C    0.51535995    0.01961014    0.26214079    0.06810000
opls_531-22    C    0.62723015    0.20699014    0.31561089    0.35780000
opls_145-23    C    0.11230987    0.44663001    0.29110152    -0.12330000
opls_523-24    C    0.17426017    0.47706024    0.29594057    -0.12330000
opls_700-25    C    0.20539002    0.53682995    0.34405094    0.00700000
opls_523-26    C    0.17315012    0.56557033    0.38315953    -0.12340000
opls_145-27    C    0.11119010    0.53493029    0.38040042    -0.11890000
opls_700-28    C    0.07998996    0.47482014    0.34279165    0.11360000
opls_531-29    C    0.27104979    0.56909983    0.35227167    0.35720000
opls_142-30    C    0.49187993    0.91320997    0.39233109    -0.08870000
opls_141-31    C    0.47594003    0.95410998    0.26068058    -0.00160000
opls_145-32    C    0.48606008    0.53534009    0.37006013    -0.12020000
opls_523-33    C    0.45559983    0.56636996    0.36348072    -0.12310000
opls_700-34    C    0.39423008    0.53718024    0.33225893    0.00570000
opls_523-35    C    0.36425034    0.47635026    0.30381040    -0.12310000
opls_145-36    C    0.39488005    0.44543025    0.30947011    -0.11900000
opls_700-37    C    0.45616013    0.47464996    0.33948072    0.11500000
opls_531-38    C    0.36142018    0.56948017    0.34163990    0.35720000
opls_142-39    C    0.01460009    0.44471025    0.33281924    -0.08870000
opls_141-40    C    0.97269029    0.38593028    0.50712982    -0.00460000
opls_145-41    C    0.88217001    0.39646023    0.48865087    -0.12310000
opls_523-42    C    0.82151016    0.37270014    0.45886947    -0.12310000
opls_700-43    C    0.78501013    0.31261016    0.42386134    0.00570000
opls_523-44    C    0.81044992    0.27655012    0.42525080    -0.12340000
opls_145-45    C    0.87113005    0.30034015    0.45495012    -0.12310000
opls_700-46    C    0.90795010    0.36083997    0.48181960    0.07370000
opls_531-47    C    0.72094007    0.28790008    0.38356986    0.35720000
opls_423-48    C    0.58351014    0.52173003    0.00629926    0.25130000
opls_423-49    C    0.41989994    0.93560998    0.11812098    0.25380000
opls_423-50    C    0.98895999    0.34572023    0.72726990    0.25280000
opls_520-51    N    0.39107000    0.62842016    0.36299116    -0.43130000
opls_520-52    N    0.69710987    0.32338995    0.37399080    -0.43170000
opls_520-53    N    0.60391996    0.24289008    0.31018889    -0.43250000
opls_520-54    N    0.30130022    0.62789006    0.37693951    -0.42040000
opls_520-55    N    0.30138013    0.54011034    0.33626884    -0.43140000
opls_520-56    N    0.68576001    0.22981002    0.35261974    -0.44420000
opls_753-57    N    0.61635010    0.57166027    0.83303007    -0.28460000
opls_753-58    N    0.37500012    0.92086014    0.00532862    -0.33310000
opls_753-59    N    0.00184992    0.31344014    0.90325009    -0.26700000
opls_146-60    H    0.36926011    0.82965021    0.61118925    0.11420000
opls_526-61    H    0.31453024    0.72213030    0.59284047    0.11440000
opls_526-62    H    0.48273014    0.73913022    0.22193138    0.11440000
opls_146-63    H    0.53697012    0.84750014    0.22238981    0.11450000
opls_144-64    H    0.45669007    0.39065992    0.51838132    0.12990000
opls_146-65    H    0.48473021    0.33959017    0.18285957    0.11460000
opls_526-66    H    0.52498991    0.27300983    0.23739087    0.12310000
opls_526-67    H    0.69518993    0.41919013    0.39782101    0.11340000
opls_146-68    H    0.65435027    0.48546021    0.35214998    0.12510000
opls_146-69    H    0.60026010    0.02478019    0.14471878    0.11860000
opls_526-70    H    0.66325002    0.13049989    0.17821012    0.11640000
opls_526-71    H    0.50475016    0.13968007    0.38216908    0.11490000
opls_146-72    H    0.44121000    0.03301994    0.36318925    0.11610000
opls_146-73    H    0.09001021    0.40165031    0.23818889    0.12460000
opls_526-74    H    0.19808020    0.45424028    0.25620941    0.11390000
opls_526-75    H    0.19583994    0.61162011    0.41944110    0.12460000
opls_146-76    H    0.08724001    0.55784024    0.41356067    0.11390000
opls_144-77    H    0.53425009    0.92871015    0.49494163    0.11450000
opls_146-78    H    0.53236010    0.55850021    0.41232119    0.12020000
opls_526-79    H    0.47974017    0.61285038    0.39254899    0.12310000
opls_526-80    H    0.31698998    0.45261986    0.27889070    0.11460000
opls_146-81    H    0.37070009    0.39848016    0.28929890    0.12200000
opls_144-82    H    0.00028024    0.47364011    0.17873081    0.11970000
opls_146-83    H    0.90860003    0.44241005    0.52374107    0.12730000
opls_526-84    H    0.80295983    0.40123982    0.46536116    0.11770000
opls_526-85    H    0.78350005    0.23009997    0.39872091    0.12170000
opls_146-86    H    0.88975005    0.27180001    0.44912911    0.11490000
