#======================================================================
# Crystal Data Generated By AuToFF
#----------------------------------------------------------------------

data_AuToFF_phase_1

_cell_length_a                         18.6581
_cell_length_b                         18.6581
_cell_length_c                         25.0000
_cell_angle_alpha                      90.00
_cell_angle_beta                       90.00
_cell_angle_gamma                      90.00
_symmetry_space_group_name_H-M_alt     'P 1'
_symmetry_space_group_IT_number        1

loop_
_space_group_symop_operation_xyz
   'x, y, z'

loop_
   _atom_site_label
   _atom_site_type_symbol
   _atom_site_fract_x
   _atom_site_fract_y
   _atom_site_fract_z
   _atom_site_charge
opls_543-0    C    0.53341980    0.66228019    0.50000000    0.36570000
opls_700-1    C    0.07290024    0.48103987    0.50000000    0.01680000
opls_521-2    C    0.71671017    0.57784019    0.50000000    0.10490000
opls_543-3    C    0.41224026    0.63830026    0.50000000    0.34820000
opls_700-4    C    0.26930984    0.49703024    0.50000000    -0.12200000
opls_700-5    C    0.14560003    0.46255996    0.50000000    -0.05860000
opls_521-6    C    0.19682980    0.52065001    0.50000000    0.13790000
opls_521-7    C    0.83353021    0.61095985    0.50000000    0.12550000
opls_543-8    C    0.46658020    0.33771981    0.50000000    0.36570000
opls_700-9    C    0.92709976    0.51896013    0.50000000    0.01680000
opls_521-10    C    0.28328983    0.42215981    0.50000000    0.10490000
opls_543-11    C    0.58775974    0.36169974    0.50000000    0.34820000
opls_700-12    C    0.73069016    0.50296976    0.50000000    -0.12200000
opls_700-13    C    0.85439997    0.53744004    0.50000000    -0.05860000
opls_521-14    C    0.80317020    0.47934999    0.50000000    0.13790000
opls_521-15    C    0.16646979    0.38904015    0.50000000    0.12550000
opls_543-16    C    0.33771981    0.53341980    0.50000000    0.36570000
opls_700-17    C    0.51896013    0.07290024    0.50000000    0.01680000
opls_521-18    C    0.42215981    0.71671017    0.50000000    0.10490000
opls_543-19    C    0.36169974    0.41224026    0.50000000    0.34820000
opls_700-20    C    0.50296976    0.26930984    0.50000000    -0.12200000
opls_700-21    C    0.53744004    0.14560003    0.50000000    -0.05860000
opls_521-22    C    0.47934999    0.19682980    0.50000000    0.13790000
opls_521-23    C    0.38904015    0.83353021    0.50000000    0.12550000
opls_543-24    C    0.66228019    0.46658020    0.50000000    0.36570000
opls_700-25    C    0.48103987    0.92709976    0.50000000    0.01680000
opls_521-26    C    0.57784019    0.28328983    0.50000000    0.10490000
opls_543-27    C    0.63830026    0.58775974    0.50000000    0.34820000
opls_700-28    C    0.49703024    0.73069016    0.50000000    -0.12200000
opls_700-29    C    0.46255996    0.85439997    0.50000000    -0.05860000
opls_521-30    C    0.52065001    0.80317020    0.50000000    0.13790000
opls_521-31    C    0.61095985    0.16646979    0.50000000    0.12550000
opls_543-32    C    0.96658020    0.16228019    0.50000000    0.36570000
opls_700-33    C    0.42709976    0.98103987    0.50000000    0.01680000
opls_521-34    C    0.78328983    0.07784019    0.50000000    0.10490000
opls_543-35    C    0.08775974    0.13830026    0.50000000    0.34820000
opls_700-36    C    0.23069016    0.99703024    0.50000000    -0.12200000
opls_700-37    C    0.35439997    0.96255996    0.50000000    -0.05860000
opls_521-38    C    0.30317020    0.02065001    0.50000000    0.13790000
opls_521-39    C    0.66646979    0.11095985    0.50000000    0.12550000
opls_543-40    C    0.03341980    0.83771981    0.50000000    0.36570000
opls_700-41    C    0.57290024    0.01896013    0.50000000    0.01680000
opls_521-42    C    0.21671017    0.92215981    0.50000000    0.10490000
opls_543-43    C    0.91224026    0.86169974    0.50000000    0.34820000
opls_700-44    C    0.76930984    0.00296976    0.50000000    -0.12200000
opls_700-45    C    0.64560003    0.03744004    0.50000000    -0.05860000
opls_521-46    C    0.69682980    0.97934999    0.50000000    0.13790000
opls_521-47    C    0.33353021    0.88904015    0.50000000    0.12550000
opls_543-48    C    0.16228019    0.03341980    0.50000000    0.36570000
opls_700-49    C    0.98103987    0.57290024    0.50000000    0.01680000
opls_521-50    C    0.07784019    0.21671017    0.50000000    0.10490000
opls_543-51    C    0.13830026    0.91224026    0.50000000    0.34820000
opls_700-52    C    0.99703024    0.76930984    0.50000000    -0.12200000
opls_700-53    C    0.96255996    0.64560003    0.50000000    -0.05860000
opls_521-54    C    0.02065001    0.69682980    0.50000000    0.13790000
opls_521-55    C    0.11095985    0.33353021    0.50000000    0.12550000
opls_543-56    C    0.83771981    0.96658020    0.50000000    0.36570000
opls_700-57    C    0.01896013    0.42709976    0.50000000    0.01680000
opls_521-58    C    0.92215981    0.78328983    0.50000000    0.10490000
opls_543-59    C    0.86169974    0.08775974    0.50000000    0.34820000
opls_700-60    C    0.00296976    0.23069016    0.50000000    -0.12200000
opls_700-61    C    0.03744004    0.35439997    0.50000000    -0.05860000
opls_521-62    C    0.97934999    0.30317020    0.50000000    0.13790000
opls_521-63    C    0.88904015    0.66646979    0.50000000    0.12550000
opls_531-64    C    0.10808978    0.60808978    0.50000000    0.40600000
opls_700-65    C    0.05365980    0.55365980    0.50000000    -0.06350000
opls_531-66    C    0.89191022    0.39191022    0.50000000    0.40590000
opls_700-67    C    0.94634020    0.44634020    0.50000000    -0.06350000
opls_531-68    C    0.39191022    0.10808978    0.50000000    0.40590000
opls_700-69    C    0.44634020    0.05365980    0.50000000    -0.06350000
opls_531-70    C    0.60808978    0.89191022    0.50000000    0.40590000
opls_700-71    C    0.55365980    0.94634020    0.50000000    -0.06350000
opls_520-72    N    0.17855998    0.59039023    0.50000000    -0.35050000
opls_520-73    N    0.63105997    0.23566012    0.50000000    -0.23340000
opls_750-74    N    0.60401005    0.65029022    0.50000000    -0.34970000
opls_542-75    N    0.48001994    0.61065007    0.50000000    -0.37820000
opls_520-76    N    0.82144002    0.40960977    0.50000000    -0.35050000
opls_520-77    N    0.36894003    0.76433988    0.50000000    -0.23340000
opls_750-78    N    0.39598995    0.34970978    0.50000000    -0.34970000
opls_542-79    N    0.51998006    0.38934993    0.50000000    -0.37830000
opls_520-80    N    0.40960977    0.17855998    0.50000000    -0.35050000
opls_520-81    N    0.76433988    0.63105997    0.50000000    -0.23340000
opls_750-82    N    0.34970978    0.60401005    0.50000000    -0.34970000
opls_542-83    N    0.38934993    0.48001994    0.50000000    -0.37830000
opls_520-84    N    0.59039023    0.82144002    0.50000000    -0.35050000
opls_520-85    N    0.23566012    0.36894003    0.50000000    -0.23340000
opls_750-86    N    0.65029022    0.39598995    0.50000000    -0.34970000
opls_542-87    N    0.61065007    0.51998006    0.50000000    -0.37840000
opls_520-88    N    0.32144002    0.09039023    0.50000000    -0.35040000
opls_520-89    N    0.86894003    0.73566012    0.50000000    -0.23340000
opls_750-90    N    0.89598995    0.15029022    0.50000000    -0.34970000
opls_542-91    N    0.01998006    0.11065007    0.50000000    -0.37840000
opls_520-92    N    0.67855998    0.90960977    0.50000000    -0.35050000
opls_520-93    N    0.13105997    0.26433988    0.50000000    -0.23340000
opls_750-94    N    0.10401005    0.84970978    0.50000000    -0.34970000
opls_542-95    N    0.98001994    0.88934993    0.50000000    -0.37840000
opls_520-96    N    0.09039023    0.67855998    0.50000000    -0.35050000
opls_520-97    N    0.73566012    0.13105997    0.50000000    -0.23340000
opls_750-98    N    0.15029022    0.10401005    0.50000000    -0.34970000
opls_542-99    N    0.11065007    0.98001994    0.50000000    -0.37840000
opls_520-100    N    0.90960977    0.32144002    0.50000000    -0.35050000
opls_520-101    N    0.26433988    0.86894003    0.50000000    -0.23340000
opls_750-102    N    0.84970978    0.89598995    0.50000000    -0.34970000
opls_542-103    N    0.88934993    0.01998006    0.50000000    -0.37840000
F2_Hg3f2-104    Hg    0.00000000    0.00000000    0.50000000    0.88930000
F2_Hg3f2-105    Hg    0.50000000    0.50000000    0.50000000    0.88930000
