#======================================================================
# Crystal Data Generated By AuToFF
#----------------------------------------------------------------------

data_AuToFF_phase_1

_cell_length_a                         23.1700
_cell_length_b                         23.1700
_cell_length_c                         4.8900
_cell_angle_alpha                      90.00
_cell_angle_beta                       90.00
_cell_angle_gamma                      90.00
_symmetry_space_group_name_H-M_alt     'P 1'
_symmetry_space_group_IT_number        1

loop_
_space_group_symop_operation_xyz
   'x, y, z'

loop_
   _atom_site_label
   _atom_site_type_symbol
   _atom_site_fract_x
   _atom_site_fract_y
   _atom_site_fract_z
   _atom_site_charge
opls_238-0    N    0.47740009    0.82929996    0.06200000    -0.28710000
opls_238-1    N    0.13540009    0.44380017    0.08869939    -0.28700000
opls_542-2    N    0.45259991    0.47540009    0.64069939    -0.00180000
opls_542-3    N    0.49810013    0.51570004    0.63079959    -0.00170000
opls_750-4    N    0.19510013    0.43749978    0.05040082    -0.19100000
opls_750-5    N    0.47680017    0.77029996    0.13259918    -0.19000000
opls_238-6    N    0.47810013    0.15910013    0.12520041    -0.28710000
opls_750-7    N    0.47080017    0.21859991    0.17750102    -0.18390000
opls_238-8    N    0.82859991    0.53780017    0.82159918    -0.28720000
opls_750-9    N    0.76810013    0.54219983    0.80600000    -0.19020000
opls_236-10    O    0.52110013    0.85929996    0.44640082    -0.39640000
opls_179-11    O    0.38429996    0.91349978    0.02659918    -0.23420000
opls_236-12    O    0.12540009    0.50419983    0.73189980    -0.40560000
opls_179-13    O    0.02029996    0.40950022    0.60210020    -0.23630000
opls_236-14    O    0.38980017    0.12759991    0.24259918    -0.40840000
opls_179-15    O    0.55919983    0.07159991    0.29859918    -0.22920000
opls_236-16    O    0.83319983    0.49049978    0.22410020    -0.39320000
opls_179-17    O    0.94149978    0.57789987    0.34310020    -0.25510000
opls_234-18    C    0.49510013    0.87189987    0.23820041    0.43270000
opls_166-19    C    0.42800000    0.95319983    0.09389980    0.20980000
opls_700-20    C    0.48240009    0.93380017    0.18510020    -0.23890000
opls_145-21    C    0.52480017    0.97480017    0.24979959    -0.25310000
opls_234-22    C    0.10289987    0.47789987    0.91969939    0.43130000
opls_700-23    C    0.04019983    0.48249978    0.95779959    -0.20530000
opls_145-24    C    0.01889987    0.52319983    0.14359918    -0.24270000
opls_166-25    C    0.00140009    0.45049978    0.79389980    0.20020000
opls_700-26    C    0.29029996    0.47819983    0.98540082    0.05570000
opls_590-27    C    0.31350022    0.42800000    0.86120041    -0.17930000
opls_700-28    C    0.36919983    0.43149978    0.75359918    0.03020000
opls_594-29    C    0.40129996    0.48170004    0.76859918    0.11000000
opls_593-30    C    0.38040009    0.53040009    0.90120041    -0.19970000
opls_592-31    C    0.32450022    0.52850022    0.00940082    -0.13280000
opls_700-32    C    0.40259991    0.39210013    0.61150102    0.03020000
opls_594-33    C    0.45289987    0.42070004    0.54369939    0.10620000
opls_590-34    C    0.39389987    0.33410013    0.54389980    -0.17560000
opls_700-35    C    0.43800000    0.30519983    0.39759918    0.05330000
opls_592-36    C    0.48840009    0.33600000    0.31940082    -0.13120000
opls_593-37    C    0.49619983    0.39380017    0.39359918    -0.17090000
opls_594-38    C    0.55310013    0.50740009    0.71440082    0.10570000
opls_700-39    C    0.58659991    0.55549978    0.66259918    0.03020000
opls_700-40    C    0.55029996    0.59580017    0.54340082    0.03120000
opls_594-41    C    0.49670004    0.56989987    0.52700000    0.10570000
opls_590-42    C    0.55980017    0.65210013    0.45030061    -0.18510000
opls_700-43    C    0.51259991    0.68240009    0.33610020    0.05340000
opls_592-44    C    0.45800000    0.65489987    0.31679959    -0.13400000
opls_593-45    C    0.44980017    0.59850022    0.41250102    -0.18160000
opls_593-46    C    0.57629996    0.45840009    0.83689980    -0.17800000
opls_592-47    C    0.63529996    0.45800000    0.89779959    -0.13120000
opls_700-48    C    0.67049978    0.50629996    0.83650102    0.05600000
opls_590-49    C    0.64549978    0.55649978    0.72079959    -0.18520000
opls_142-50    C    0.22929996    0.48170004    0.06659918    0.01240000
opls_142-51    C    0.43400000    0.24259991    0.34300000    0.01240000
opls_142-52    C    0.51950022    0.74310013    0.24820041    0.01310000
opls_142-53    C    0.73319983    0.50119983    0.87959918    -0.00580000
opls_234-54    C    0.43959991    0.11589987    0.18520041    0.43620000
opls_166-55    C    0.51329996    0.03410013    0.24089980    0.20260000
opls_700-56    C    0.45719983    0.05380017    0.17189980    -0.12120000
opls_145-57    C    0.41540009    0.01259991    0.09930061    -0.28960000
opls_234-58    C    0.85800000    0.50900000    0.02289980    0.43190000
opls_166-59    C    0.95970004    0.53440009    0.16230061    0.20310000
opls_700-60    C    0.92089987    0.50200000    0.00020041    -0.18680000
opls_145-61    C    0.94229996    0.46129996    0.81410020    -0.24260000
opls_182-62    C    0.55759991    0.09500000    0.56769939    0.02670000
opls_136-63    C    0.61280017    0.12880017    0.63020041    -0.21510000
opls_136-64    C    0.62959991    0.17149978    0.40340082    -0.15070000
opls_136-65    C    0.67240009    0.21789987    0.50449898    -0.15360000
opls_136-66    C    0.64480017    0.27749978    0.55269939    -0.12340000
opls_135-67    C    0.59510013    0.27610013    0.75669939    -0.40710000
opls_182-68    C    0.36149978    0.91959991    0.75530061    0.05040000
opls_136-69    C    0.29980017    0.89529996    0.74069939    -0.21240000
opls_136-70    C    0.29580017    0.83800000    0.58420041    -0.14680000
opls_136-71    C    0.32000000    0.78700000    0.74759918    -0.14570000
opls_136-72    C    0.31280017    0.73059991    0.58740082    -0.12500000
opls_135-73    C    0.33629996    0.67929996    0.74700000    -0.40790000
opls_182-74    C    0.05489987    0.36359991    0.70989980    0.04970000
opls_136-75    C    0.03550022    0.30580017    0.59010020    -0.21240000
opls_136-76    C    0.07300000    0.25540009    0.69559918    -0.15060000
opls_136-77    C    0.11570004    0.23140009    0.48320041    -0.15070000
opls_136-78    C    0.16189987    0.27450022    0.38630061    -0.12530000
opls_135-79    C    0.20500000    0.29059991    0.60979959    -0.40810000
opls_182-80    C    0.90570004    0.62200000    0.22669939    0.01730000
opls_136-81    C    0.91959991    0.68010013    0.35800000    -0.21140000
opls_136-82    C    0.88100000    0.72910013    0.24969939    -0.15360000
opls_136-83    C    0.81670004    0.72189987    0.32649898    -0.15060000
opls_136-84    C    0.77970004    0.70340009    0.08130061    -0.12380000
opls_135-85    C    0.71780017    0.69000000    0.16779959    -0.40800000
opls_910-86    H    0.45629996    0.84089987    0.88259918    0.25210000
opls_146-87    H    0.56740009    0.96070004    0.31279959    0.11070000
opls_910-88    H    0.11480017    0.41729996    0.23079959    0.25480000
opls_146-89    H    0.04859991    0.54819983    0.26720041    0.10990000
opls_599-90    H    0.28840009    0.38889987    0.83930061    0.11530000
opls_602-91    H    0.40559991    0.56950022    0.91369939    0.11820000
opls_601-92    H    0.30719983    0.56689987    0.10500000    0.11580000
opls_599-93    H    0.35500000    0.31180017    0.60700000    0.11430000
opls_601-94    H    0.52280017    0.31470004    0.21020041    0.11260000
opls_602-95    H    0.53549978    0.41619983    0.34149898    0.11980000
opls_599-96    H    0.60189987    0.67180017    0.46879959    0.11410000
opls_601-97    H    0.42119983    0.67750022    0.23289980    0.11670000
opls_602-98    H    0.40789987    0.57840009    0.40089980    0.10970000
opls_602-99    H    0.55010013    0.42100000    0.87850102    0.11230000
opls_601-100    H    0.65400000    0.41950022    0.98689980    0.11110000
opls_599-101    H    0.67119983    0.59410013    0.67140082    0.11350000
opls_144-102    H    0.21170004    0.52340009    0.12479959    0.10260000
opls_144-103    H    0.40350022    0.21729996    0.45969939    0.11680000
opls_144-104    H    0.56019983    0.76480017    0.28320041    0.10130000
opls_144-105    H    0.75010013    0.46049978    0.95220041    0.11830000
opls_910-106    H    0.51700000    0.14789987    0.03469939    0.23350000
opls_146-107    H    0.37200000    0.02670004    0.05020041    0.11240000
opls_910-108    H    0.85249978    0.56040009    0.67640082    0.25600000
opls_146-109    H    0.91270004    0.43700000    0.68679959    0.11090000
opls_140-110    H    0.60580017    0.15259991    0.82310020    0.12050000
opls_140-111    H    0.59040009    0.19210013    0.31640082    0.11320000
opls_140-112    H    0.70649978    0.22349978    0.34679959    0.08130000
opls_140-113    H    0.62919983    0.29589987    0.35730061    0.10310000
opls_140-114    H    0.60910013    0.25480017    0.94740082    0.09970000
opls_185-115    H    0.55370004    0.05959991    0.71979959    0.05610000
opls_185-116    H    0.51989987    0.12410013    0.58950102    0.05580000
opls_140-117    H    0.64900000    0.09810013    0.66359918    0.10560000
opls_140-118    H    0.65059991    0.14640009    0.23759918    0.10260000
opls_140-119    H    0.69480017    0.20359991    0.69389980    0.10550000
opls_140-120    H    0.67859991    0.30710013    0.63210020    0.08130000
opls_140-121    H    0.55729996    0.25270004    0.67210020    0.16380000
opls_140-122    H    0.58159991    0.32089987    0.80369939    0.16510000
opls_140-123    H    0.28129996    0.89050022    0.94889980    0.10260000
opls_140-124    H    0.31870004    0.84180017    0.38540082    0.11310000
opls_140-125    H    0.29670004    0.78359991    0.94540082    0.10260000
opls_140-126    H    0.33610013    0.73380017    0.38959918    0.10260000
opls_140-127    H    0.32900000    0.63910013    0.62840082    0.16390000
opls_185-128    H    0.39059991    0.89729996    0.60930061    0.05620000
opls_185-129    H    0.35989987    0.96559991    0.68930061    0.05590000
opls_140-130    H    0.27219983    0.92719983    0.63159918    0.11680000
opls_140-131    H    0.24950022    0.82959991    0.53910020    0.10520000
opls_140-132    H    0.36649978    0.79429996    0.79000000    0.10260000
opls_140-133    H    0.26629996    0.72310013    0.54400000    0.10560000
opls_140-134    H    0.31410013    0.67529996    0.94710020    0.16460000
opls_140-135    H    0.38340009    0.68459991    0.78100000    0.16420000
opls_140-136    H    0.98989987    0.29849978    0.65300000    0.11680000
opls_140-137    H    0.04380017    0.21950022    0.75510020    0.11310000
opls_140-138    H    0.09080017    0.21600000    0.30330061    0.11300000
opls_140-139    H    0.14159991    0.31400000    0.30210020    0.09900000
opls_140-140    H    0.18380017    0.31549978    0.77510020    0.16510000
opls_185-141    H    0.05180017    0.36100000    0.93659918    0.05570000
opls_185-142    H    0.10049978    0.37149978    0.65389980    0.04880000
opls_140-143    H    0.03600000    0.30789987    0.36330061    0.10260000
opls_140-144    H    0.09659991    0.26770004    0.88379959    0.12300000
opls_140-145    H    0.13740009    0.19289987    0.57149898    0.08140000
opls_140-146    H    0.18640009    0.25389987    0.21679959    0.10550000
opls_140-147    H    0.23950022    0.31800000    0.52030061    0.16420000
opls_140-148    H    0.22519983    0.25129996    0.69740082    0.16390000
opls_185-149    H    0.86000000    0.61119983    0.26879959    0.05420000
opls_185-150    H    0.91210013    0.62549978    0.00189980    0.05570000
opls_140-151    H    0.91470004    0.67680017    0.58320041    0.10720000
opls_140-152    H    0.89689987    0.77000000    0.34140082    0.08130000
opls_140-153    H    0.81170004    0.69010013    0.49489980    0.11300000
opls_140-154    H    0.77889987    0.73889987    0.92850102    0.08130000
opls_140-155    H    0.69819983    0.72789987    0.27059918    0.16400000
opls_140-156    H    0.69159991    0.67910013    0.98500000    0.16440000
opls_140-157    H    0.96540009    0.69100000    0.31430061    0.08140000
opls_140-158    H    0.88670004    0.73349978    0.02489980    0.10550000
opls_140-159    H    0.80000000    0.76380017    0.40359918    0.11300000
opls_140-160    H    0.79829996    0.66449978    0.98259918    0.12110000
opls_140-161    H    0.71729996    0.65250022    0.30930061    0.16420000
