#======================================================================
# Crystal Data Generated By AuToFF
#----------------------------------------------------------------------

data_AuToFF_phase_1

_cell_length_a                         28.4010
_cell_length_b                         28.4010
_cell_length_c                         28.4010
_cell_angle_alpha                      90.00
_cell_angle_beta                       90.00
_cell_angle_gamma                      90.00
_symmetry_space_group_name_H-M_alt     'P 1'
_symmetry_space_group_IT_number        1

loop_
_space_group_symop_operation_xyz
   'x, y, z'

loop_
   _atom_site_label
   _atom_site_type_symbol
   _atom_site_fract_x
   _atom_site_fract_y
   _atom_site_fract_z
   _atom_site_charge
opls_261-0    C    0.58883983    0.90473012    0.03528010    0.06610000
opls_142-1    C    0.55309003    0.92860991    0.01134995    -0.16110000
opls_700-2    C    0.77690997    0.81242984    0.15179994    0.03880000
opls_166-3    C    0.70725996    0.84892997    0.11722017    0.19430000
opls_145-4    C    0.74101018    0.81373015    0.11663005    -0.25550000
opls_261-5    C    0.41116017    0.09526988    0.03528010    0.06610000
opls_142-6    C    0.44690997    0.07139009    0.01134995    -0.16110000
opls_700-7    C    0.22309003    0.18757016    0.15179994    0.03880000
opls_166-8    C    0.29274004    0.15107003    0.11722017    0.19430000
opls_145-9    C    0.25898982    0.18626985    0.11663005    -0.25550000
opls_261-10    C    0.41116017    0.90473012    0.96471990    0.06610000
opls_142-11    C    0.44690997    0.92860991    0.98865005    -0.16110000
opls_700-12    C    0.22309003    0.81242984    0.84820006    0.03880000
opls_166-13    C    0.29274004    0.84892997    0.88277983    0.19430000
opls_145-14    C    0.25898982    0.81373015    0.88336995    -0.25550000
opls_261-15    C    0.58883983    0.09526988    0.96471990    0.06610000
opls_142-16    C    0.55309003    0.07139009    0.98865005    -0.16110000
opls_700-17    C    0.77690997    0.18757016    0.84820006    0.03880000
opls_166-18    C    0.70725996    0.15107003    0.88277983    0.19430000
opls_145-19    C    0.74101018    0.18626985    0.88336995    -0.25550000
opls_261-20    C    0.03528010    0.58883983    0.90473012    0.06610000
opls_142-21    C    0.01134995    0.55309003    0.92860991    -0.16100000
opls_700-22    C    0.15179994    0.77690997    0.81242984    0.03880000
opls_166-23    C    0.11722017    0.70725996    0.84892997    0.19430000
opls_145-24    C    0.11663005    0.74101018    0.81373015    -0.25550000
opls_261-25    C    0.03528010    0.41116017    0.09526988    0.06610000
opls_142-26    C    0.01134995    0.44690997    0.07139009    -0.16110000
opls_700-27    C    0.15179994    0.22309003    0.18757016    0.03880000
opls_166-28    C    0.11722017    0.29274004    0.15107003    0.19430000
opls_145-29    C    0.11663005    0.25898982    0.18626985    -0.25550000
opls_261-30    C    0.96471990    0.41116017    0.90473012    0.06610000
opls_142-31    C    0.98865005    0.44690997    0.92860991    -0.16110000
opls_700-32    C    0.84820006    0.22309003    0.81242984    0.03880000
opls_166-33    C    0.88277983    0.29274004    0.84892997    0.19430000
opls_145-34    C    0.88336995    0.25898982    0.81373015    -0.25550000
opls_261-35    C    0.96471990    0.58883983    0.09526988    0.06610000
opls_142-36    C    0.98865005    0.55309003    0.07139009    -0.16110000
opls_700-37    C    0.84820006    0.77690997    0.18757016    0.03880000
opls_166-38    C    0.88277983    0.70725996    0.15107003    0.19430000
opls_145-39    C    0.88336995    0.74101018    0.18626985    -0.25550000
opls_261-40    C    0.90473012    0.03528010    0.58883983    0.06610000
opls_142-41    C    0.92860991    0.01134995    0.55309003    -0.16110000
opls_700-42    C    0.81242984    0.15179994    0.77690997    0.03880000
opls_166-43    C    0.84892997    0.11722017    0.70725996    0.19430000
opls_145-44    C    0.81373015    0.11663005    0.74101018    -0.25550000
opls_261-45    C    0.09526988    0.03528010    0.41116017    0.06610000
opls_142-46    C    0.07139009    0.01134995    0.44690997    -0.16110000
opls_700-47    C    0.18757016    0.15179994    0.22309003    0.03880000
opls_166-48    C    0.15107003    0.11722017    0.29274004    0.19430000
opls_145-49    C    0.18626985    0.11663005    0.25898982    -0.25550000
opls_261-50    C    0.90473012    0.96471990    0.41116017    0.06610000
opls_142-51    C    0.92860991    0.98865005    0.44690997    -0.16110000
opls_700-52    C    0.81242984    0.84820006    0.22309003    0.03880000
opls_166-53    C    0.84892997    0.88277983    0.29274004    0.19430000
opls_145-54    C    0.81373015    0.88336995    0.25898982    -0.25550000
opls_261-55    C    0.09526988    0.96471990    0.58883983    0.06610000
opls_142-56    C    0.07139009    0.98865005    0.55309003    -0.16110000
opls_700-57    C    0.18757016    0.84820006    0.77690997    0.03880000
opls_166-58    C    0.15107003    0.88277983    0.70725996    0.19430000
opls_145-59    C    0.18626985    0.88336995    0.74101018    -0.25550000
opls_261-60    C    0.90473012    0.58883983    0.03528010    0.06610000
opls_142-61    C    0.92860991    0.55309003    0.01134995    -0.16110000
opls_700-62    C    0.81242984    0.77690997    0.15179994    0.03880000
opls_166-63    C    0.84892997    0.70725996    0.11722017    0.19430000
opls_145-64    C    0.81373015    0.74101018    0.11663005    -0.25550000
opls_261-65    C    0.09526988    0.41116017    0.03528010    0.06610000
opls_142-66    C    0.07139009    0.44690997    0.01134995    -0.16110000
opls_700-67    C    0.18757016    0.22309003    0.15179994    0.03880000
opls_166-68    C    0.15107003    0.29274004    0.11722017    0.19430000
opls_145-69    C    0.18626985    0.25898982    0.11663005    -0.25550000
opls_261-70    C    0.90473012    0.41116017    0.96471990    0.06610000
opls_142-71    C    0.92860991    0.44690997    0.98865005    -0.16110000
opls_700-72    C    0.81242984    0.22309003    0.84820006    0.03880000
opls_166-73    C    0.84892997    0.29274004    0.88277983    0.19430000
opls_145-74    C    0.81373015    0.25898982    0.88336995    -0.25550000
opls_261-75    C    0.09526988    0.58883983    0.96471990    0.06610000
opls_142-76    C    0.07139009    0.55309003    0.98865005    -0.16110000
opls_700-77    C    0.18757016    0.77690997    0.84820006    0.03880000
opls_166-78    C    0.15107003    0.70725996    0.88277983    0.19430000
opls_145-79    C    0.18626985    0.74101018    0.88336995    -0.25550000
opls_261-80    C    0.58883983    0.03528010    0.90473012    0.06610000
opls_142-81    C    0.55309003    0.01134995    0.92860991    -0.16110000
opls_700-82    C    0.77690997    0.15179994    0.81242984    0.03880000
opls_166-83    C    0.70725996    0.11722017    0.84892997    0.19430000
opls_145-84    C    0.74101018    0.11663005    0.81373015    -0.25550000
opls_261-85    C    0.41116017    0.03528010    0.09526988    0.06610000
opls_142-86    C    0.44690997    0.01134995    0.07139009    -0.16110000
opls_700-87    C    0.22309003    0.15179994    0.18757016    0.03880000
opls_166-88    C    0.29274004    0.11722017    0.15107003    0.19430000
opls_145-89    C    0.25898982    0.11663005    0.18626985    -0.25550000
opls_261-90    C    0.41116017    0.96471990    0.90473012    0.06610000
opls_142-91    C    0.44690997    0.98865005    0.92860991    -0.16110000
opls_700-92    C    0.22309003    0.84820006    0.81242984    0.03880000
opls_166-93    C    0.29274004    0.88277983    0.84892997    0.19430000
opls_145-94    C    0.25898982    0.88336995    0.81373015    -0.25550000
opls_261-95    C    0.58883983    0.96471990    0.09526988    0.06610000
opls_142-96    C    0.55309003    0.98865005    0.07139009    -0.16110000
opls_700-97    C    0.77690997    0.84820006    0.18757016    0.03880000
opls_166-98    C    0.70725996    0.88277983    0.15107003    0.19430000
opls_145-99    C    0.74101018    0.88336995    0.18626985    -0.25550000
opls_261-100    C    0.03528010    0.90473012    0.58883983    0.06610000
opls_142-101    C    0.01134995    0.92860991    0.55309003    -0.16110000
opls_700-102    C    0.15179994    0.81242984    0.77690997    0.03880000
opls_166-103    C    0.11722017    0.84892997    0.70725996    0.19430000
opls_145-104    C    0.11663005    0.81373015    0.74101018    -0.25550000
opls_261-105    C    0.03528010    0.09526988    0.41116017    0.06610000
opls_142-106    C    0.01134995    0.07139009    0.44690997    -0.16110000
opls_700-107    C    0.15179994    0.18757016    0.22309003    0.03880000
opls_166-108    C    0.11722017    0.15107003    0.29274004    0.19430000
opls_145-109    C    0.11663005    0.18626985    0.25898982    -0.25550000
opls_261-110    C    0.96471990    0.90473012    0.41116017    0.06610000
opls_142-111    C    0.98865005    0.92860991    0.44690997    -0.16110000
opls_700-112    C    0.84820006    0.81242984    0.22309003    0.03880000
opls_166-113    C    0.88277983    0.84892997    0.29274004    0.19430000
opls_145-114    C    0.88336995    0.81373015    0.25898982    -0.25550000
opls_261-115    C    0.96471990    0.09526988    0.58883983    0.06620000
opls_142-116    C    0.98865005    0.07139009    0.55309003    -0.16110000
opls_700-117    C    0.84820006    0.18757016    0.77690997    0.03880000
opls_166-118    C    0.88277983    0.15107003    0.70725996    0.19430000
opls_145-119    C    0.88336995    0.18626985    0.74101018    -0.25550000
opls_141-120    C    0.60702018    0.92264005    0.07735995    -0.32740000
opls_700-121    C    0.53294990    0.97037992    0.02962008    0.05650000
opls_141-122    C    0.39297982    0.07735995    0.07735995    -0.32740000
opls_700-123    C    0.46705010    0.02962008    0.02962008    0.05650000
opls_141-124    C    0.39297982    0.92264005    0.92264005    -0.32730000
opls_700-125    C    0.46705010    0.97037992    0.97037992    0.05650000
opls_141-126    C    0.60702018    0.07735995    0.92264005    -0.32740000
opls_700-127    C    0.53294990    0.02962008    0.97037992    0.05650000
opls_141-128    C    0.07735995    0.60702018    0.92264005    -0.32730000
opls_700-129    C    0.02962008    0.53294990    0.97037992    0.05650000
opls_141-130    C    0.07735995    0.39297982    0.07735995    -0.32740000
opls_700-131    C    0.02962008    0.46705010    0.02962008    0.05650000
opls_141-132    C    0.92264005    0.39297982    0.92264005    -0.32740000
opls_700-133    C    0.97037992    0.46705010    0.97037992    0.05650000
opls_141-134    C    0.92264005    0.60702018    0.07735995    -0.32740000
opls_700-135    C    0.97037992    0.53294990    0.02962008    0.05650000
opls_141-136    C    0.92264005    0.07735995    0.60702018    -0.32740000
opls_700-137    C    0.97037992    0.02962008    0.53294990    0.05650000
opls_141-138    C    0.07735995    0.07735995    0.39297982    -0.32740000
opls_700-139    C    0.02962008    0.02962008    0.46705010    0.05650000
opls_141-140    C    0.92264005    0.92264005    0.39297982    -0.32740000
opls_700-141    C    0.97037992    0.97037992    0.46705010    0.05650000
opls_141-142    C    0.07735995    0.92264005    0.60702018    -0.32740000
opls_700-143    C    0.02962008    0.97037992    0.53294990    0.05650000
opls_701-144    C    0.50000000    0.00000000    0.00000000    -0.00690000
opls_701-145    C    0.00000000    0.50000000    0.00000000    -0.00690000
opls_701-146    C    0.00000000    0.00000000    0.50000000    -0.00690000
opls_146-147    H    0.73800007    0.78820006    0.08838985    0.12430000
opls_144-148    H    0.54196014    0.91468012    0.97775008    0.12950000
opls_146-149    H    0.26199993    0.21179994    0.08838985    0.12430000
opls_144-150    H    0.45803986    0.08531988    0.97775008    0.12950000
opls_146-151    H    0.26199993    0.78820006    0.91161015    0.12430000
opls_144-152    H    0.45803986    0.91468012    0.02224992    0.12950000
opls_146-153    H    0.73800007    0.21179994    0.91161015    0.12430000
opls_144-154    H    0.54196014    0.08531988    0.02224992    0.12960000
opls_146-155    H    0.08838985    0.73800007    0.78820006    0.12430000
opls_144-156    H    0.97775008    0.54196014    0.91468012    0.12950000
opls_146-157    H    0.08838985    0.26199993    0.21179994    0.12430000
opls_144-158    H    0.97775008    0.45803986    0.08531988    0.12950000
opls_146-159    H    0.91161015    0.26199993    0.78820006    0.12430000
opls_144-160    H    0.02224992    0.45803986    0.91468012    0.12960000
opls_146-161    H    0.91161015    0.73800007    0.21179994    0.12440000
opls_144-162    H    0.02224992    0.54196014    0.08531988    0.12950000
opls_146-163    H    0.78820006    0.08838985    0.73800007    0.12430000
opls_144-164    H    0.91468012    0.97775008    0.54196014    0.12950000
opls_146-165    H    0.21179994    0.08838985    0.26199993    0.12430000
opls_144-166    H    0.08531988    0.97775008    0.45803986    0.12950000
opls_146-167    H    0.78820006    0.91161015    0.26199993    0.12430000
opls_144-168    H    0.91468012    0.02224992    0.45803986    0.12960000
opls_146-169    H    0.21179994    0.91161015    0.73800007    0.12430000
opls_144-170    H    0.08531988    0.02224992    0.54196014    0.12950000
opls_146-171    H    0.78820006    0.73800007    0.08838985    0.12430000
opls_144-172    H    0.91468012    0.54196014    0.97775008    0.12950000
opls_146-173    H    0.21179994    0.26199993    0.08838985    0.12430000
opls_144-174    H    0.08531988    0.45803986    0.97775008    0.12950000
opls_146-175    H    0.78820006    0.26199993    0.91161015    0.12430000
opls_144-176    H    0.91468012    0.45803986    0.02224992    0.12950000
opls_146-177    H    0.21179994    0.73800007    0.91161015    0.12430000
opls_144-178    H    0.08531988    0.54196014    0.02224992    0.12950000
opls_146-179    H    0.73800007    0.08838985    0.78820006    0.12440000
opls_144-180    H    0.54196014    0.97775008    0.91468012    0.12950000
opls_146-181    H    0.26199993    0.08838985    0.21179994    0.12430000
opls_144-182    H    0.45803986    0.97775008    0.08531988    0.12950000
opls_146-183    H    0.26199993    0.91161015    0.78820006    0.12430000
opls_144-184    H    0.45803986    0.02224992    0.91468012    0.12950000
opls_146-185    H    0.73800007    0.91161015    0.21179994    0.12430000
opls_144-186    H    0.54196014    0.02224992    0.08531988    0.12950000
opls_146-187    H    0.08838985    0.78820006    0.73800007    0.12430000
opls_144-188    H    0.97775008    0.91468012    0.54196014    0.12950000
opls_146-189    H    0.08838985    0.21179994    0.26199993    0.12430000
opls_144-190    H    0.97775008    0.08531988    0.45803986    0.12950000
opls_146-191    H    0.91161015    0.78820006    0.26199993    0.12430000
opls_144-192    H    0.02224992    0.91468012    0.45803986    0.12950000
opls_146-193    H    0.91161015    0.21179994    0.73800007    0.12430000
opls_144-194    H    0.02224992    0.08531988    0.54196014    0.12960000
opls_167-195    O    0.67142988    0.85456005    0.08456991    -0.31630000
opls_167-196    O    0.32857012    0.14543995    0.08456991    -0.31630000
opls_167-197    O    0.32857012    0.85456005    0.91543009    -0.31630000
opls_167-198    O    0.67142988    0.14543995    0.91543009    -0.31630000
opls_167-199    O    0.08456991    0.67142988    0.85456005    -0.31630000
opls_167-200    O    0.08456991    0.32857012    0.14543995    -0.31630000
opls_167-201    O    0.91543009    0.32857012    0.85456005    -0.31630000
opls_167-202    O    0.91543009    0.67142988    0.14543995    -0.31630000
opls_167-203    O    0.85456005    0.08456991    0.67142988    -0.31630000
opls_167-204    O    0.14543995    0.08456991    0.32857012    -0.31620000
opls_167-205    O    0.85456005    0.91543009    0.32857012    -0.31630000
opls_167-206    O    0.14543995    0.91543009    0.67142988    -0.31630000
opls_167-207    O    0.85456005    0.67142988    0.08456991    -0.31630000
opls_167-208    O    0.14543995    0.32857012    0.08456991    -0.31630000
opls_167-209    O    0.85456005    0.32857012    0.91543009    -0.31630000
opls_167-210    O    0.14543995    0.67142988    0.91543009    -0.31630000
opls_167-211    O    0.67142988    0.08456991    0.85456005    -0.31630000
opls_167-212    O    0.32857012    0.08456991    0.14543995    -0.31630000
opls_167-213    O    0.32857012    0.91543009    0.85456005    -0.31630000
opls_167-214    O    0.67142988    0.91543009    0.14543995    -0.31620000
opls_167-215    O    0.08456991    0.85456005    0.67142988    -0.31630000
opls_167-216    O    0.08456991    0.14543995    0.32857012    -0.31630000
opls_167-217    O    0.91543009    0.85456005    0.32857012    -0.31630000
opls_167-218    O    0.91543009    0.14543995    0.67142988    -0.31630000
MOF2_B_2-219    B    0.64885990    0.89710010    0.10289990    0.63230000
MOF2_B_2-220    B    0.35114010    0.10289990    0.10289990    0.63230000
MOF2_B_2-221    B    0.35114010    0.89710010    0.89710010    0.63230000
MOF2_B_2-222    B    0.64885990    0.10289990    0.89710010    0.63230000
MOF2_B_2-223    B    0.10289990    0.64885990    0.89710010    0.63240000
MOF2_B_2-224    B    0.10289990    0.35114010    0.10289990    0.63230000
MOF2_B_2-225    B    0.89710010    0.35114010    0.89710010    0.63240000
MOF2_B_2-226    B    0.89710010    0.64885990    0.10289990    0.63230000
MOF2_B_2-227    B    0.89710010    0.10289990    0.64885990    0.63230000
MOF2_B_2-228    B    0.10289990    0.10289990    0.35114010    0.63240000
MOF2_B_2-229    B    0.89710010    0.89710010    0.35114010    0.63230000
MOF2_B_2-230    B    0.10289990    0.89710010    0.64885990    0.63230000
