#======================================================================
# Crystal Data Generated By AuToFF
#----------------------------------------------------------------------

data_AuToFF_phase_1

_cell_length_a                         37.2718
_cell_length_b                         37.2718
_cell_length_c                         3.5200
_cell_angle_alpha                      90.00
_cell_angle_beta                       90.00
_cell_angle_gamma                      120.00
_symmetry_space_group_name_H-M_alt     'P 1'
_symmetry_space_group_IT_number        1

loop_
_space_group_symop_operation_xyz
   'x, y, z'

loop_
   _atom_site_label
   _atom_site_type_symbol
   _atom_site_fract_x
   _atom_site_fract_y
   _atom_site_fract_z
   _atom_site_charge
opls_700-0    C    0.28976011    0.64139006    0.55867898    0.05800000
opls_145-1    C    0.31518010    0.62343002    0.55861080    -0.14440000
opls_145-2    C    0.24365011    0.61466997    0.56057102    0.08200000
opls_145-3    C    0.37303990    0.59160000    0.39498011    -0.20890000
opls_145-4    C    0.39770987    0.57322978    0.39744034    -0.21720000
opls_145-5    C    0.43545998    0.59189989    0.56888068    0.19760000
opls_145-6    C    0.44833986    0.62975997    0.72965057    -0.21730000
opls_145-7    C    0.42339986    0.64779993    0.72690057    -0.20910000
opls_142-8    C    0.44612008    0.53497006    0.57207102    0.01100000
opls_700-9    C    0.47305990    0.51647003    0.56811932    0.03160000
opls_700-10    C    0.45638997    0.47283983    0.56761932    0.09260000
opls_145-11    C    0.48356015    0.45722006    0.56726136    -0.15850000
opls_148-12    C    0.58994996    0.55685997    0.56748864    -0.44100000
opls_700-13    C    0.35860994    0.64836997    0.55867898    0.05800000
opls_145-14    C    0.37656998    0.69174985    0.55861080    -0.14440000
opls_145-15    C    0.38532982    0.62897988    0.56057102    0.08200000
opls_145-16    C    0.40840000    0.78143975    0.39498011    -0.20890000
opls_145-17    C    0.42676990    0.82447977    0.39744034    -0.21720000
opls_145-18    C    0.40809983    0.84355975    0.56888068    0.19760000
opls_145-19    C    0.37024002    0.81857983    0.72965057    -0.21730000
opls_145-20    C    0.35219985    0.77559991    0.72690057    -0.20910000
opls_142-21    C    0.46502986    0.91114999    0.57207102    0.01100000
opls_700-22    C    0.48352994    0.95658976    0.56811932    0.03160000
opls_700-23    C    0.52715991    0.98354995    0.56761932    0.09260000
opls_145-24    C    0.54278003    0.02633996    0.56726136    -0.15850000
opls_148-25    C    0.44313991    0.03309000    0.56748864    -0.44100000
opls_700-26    C    0.35162994    0.71023997    0.55867898    0.05800000
opls_145-27    C    0.30825003    0.68481982    0.55861080    -0.14440000
opls_145-28    C    0.37101992    0.75634985    0.56057102    0.08200000
opls_145-29    C    0.21855995    0.62695994    0.39498011    -0.20890000
opls_145-30    C    0.17551991    0.60228983    0.39744034    -0.21720000
opls_145-31    C    0.15644004    0.56454005    0.56888068    0.19760000
opls_145-32    C    0.18141996    0.55165989    0.72965057    -0.21730000
opls_145-33    C    0.22439987    0.57659984    0.72690057    -0.20910000
opls_142-34    C    0.08885005    0.55387996    0.57207102    0.01100000
opls_700-35    C    0.04341001    0.52693990    0.56811932    0.03160000
opls_700-36    C    0.01644997    0.54360991    0.56761932    0.09260000
opls_145-37    C    0.97366008    0.51643998    0.56726136    -0.15850000
opls_148-38    C    0.96691014    0.41005002    0.56748864    -0.44100000
opls_700-39    C    0.71023989    0.35860994    0.55867898    0.05800000
opls_145-40    C    0.68481990    0.37656998    0.55861080    -0.14440000
opls_145-41    C    0.75634989    0.38533003    0.56057102    0.08200000
opls_145-42    C    0.62696010    0.40840000    0.39498011    -0.20890000
opls_145-43    C    0.60228997    0.42676991    0.39744034    -0.21720000
opls_145-44    C    0.56453987    0.40809980    0.56888068    0.19760000
opls_145-45    C    0.55166014    0.37024003    0.72965057    -0.21730000
opls_145-46    C    0.57660014    0.35220007    0.72690057    -0.20910000
opls_142-47    C    0.55387992    0.46502994    0.57207102    0.01100000
opls_700-48    C    0.52694010    0.48352997    0.56811932    0.03160000
opls_700-49    C    0.54360987    0.52715986    0.56761932    0.09260000
opls_145-50    C    0.51643985    0.54277994    0.56726136    -0.15850000
opls_148-51    C    0.41005004    0.44314003    0.56748864    -0.44100000
opls_700-52    C    0.64139006    0.35163003    0.55867898    0.05800000
opls_145-53    C    0.62342986    0.30824984    0.55861080    -0.14440000
opls_145-54    C    0.61467002    0.37101981    0.56057102    0.08200000
opls_145-55    C    0.59159985    0.21855994    0.39498011    -0.20890000
opls_145-56    C    0.57322994    0.17551992    0.39744034    -0.21720000
opls_145-57    C    0.59190002    0.15643994    0.56888068    0.19770000
opls_145-58    C    0.62975983    0.18141986    0.72965057    -0.21730000
opls_145-59    C    0.64780015    0.22440009    0.72690057    -0.20910000
opls_142-60    C    0.53497014    0.08885001    0.57207102    0.01100000
opls_700-61    C    0.51646991    0.04340993    0.56811932    0.03160000
opls_700-62    C    0.47284009    0.01645005    0.56761932    0.09260000
opls_145-63    C    0.45721981    0.97365973    0.56726136    -0.15850000
opls_148-64    C    0.55686009    0.96691000    0.56748864    -0.44090000
opls_700-65    C    0.64837006    0.28976003    0.55867898    0.05810000
opls_145-66    C    0.69174981    0.31517987    0.55861080    -0.14440000
opls_145-67    C    0.62897993    0.24364984    0.56057102    0.08200000
opls_145-68    C    0.78144005    0.37304006    0.39498011    -0.20890000
opls_145-69    C    0.82447993    0.39770986    0.39744034    -0.21720000
opls_145-70    C    0.84355996    0.43545995    0.56888068    0.19760000
opls_145-71    C    0.81857988    0.44833980    0.72965057    -0.21730000
opls_145-72    C    0.77559998    0.42339985    0.72690057    -0.20910000
opls_142-73    C    0.91114995    0.44612004    0.57207102    0.01100000
opls_700-74    C    0.95658983    0.47305979    0.56811932    0.03160000
opls_700-75    C    0.98355003    0.45639009    0.56761932    0.09260000
opls_145-76    C    0.02633992    0.48356002    0.56726136    -0.15850000
opls_148-77    C    0.03308986    0.58994998    0.56748864    -0.44100000
opls_750-78    N    0.46242981    0.57523980    0.57192045    -0.38410000
opls_750-79    N    0.42476009    0.88718995    0.57192045    -0.38400000
opls_750-80    N    0.11280994    0.53756994    0.57192045    -0.38420000
opls_750-81    N    0.53757004    0.42475989    0.57192045    -0.38420000
opls_750-82    N    0.57523991    0.11281005    0.57192045    -0.38410000
opls_750-83    N    0.88719006    0.46243006    0.57192045    -0.38420000
opls_146-84    H    0.30090995    0.58940998    0.55888920    0.07800000
opls_146-85    H    0.34391002    0.57706982    0.25659091    0.22290000
opls_146-86    H    0.38811989    0.54460996    0.25932102    0.22290000
opls_146-87    H    0.47770006    0.64431989    0.86444886    0.22300000
opls_146-88    H    0.43331982    0.67686990    0.85963068    0.21620000
opls_144-89    H    0.41162001    0.51331993    0.58125000    0.03240000
opls_146-90    H    0.47129980    0.42343981    0.56759943    0.10640000
opls_702-91    H    0.60475979    0.55231978    0.35371023    0.14740000
opls_702-92    H    0.60477992    0.55237988    0.78144034    0.14740000
opls_702-93    H    0.59663985    0.58913983    0.56721023    0.11230000
opls_146-94    H    0.41059009    0.71149994    0.55888920    0.07560000
opls_146-95    H    0.42292996    0.76683986    0.25659091    0.22290000
opls_146-96    H    0.45539002    0.84350987    0.25932102    0.22290000
opls_146-97    H    0.35568000    0.83337986    0.86444886    0.22290000
opls_146-98    H    0.32312995    0.75644992    0.85963068    0.21630000
opls_144-99    H    0.48667992    0.89829988    0.58125000    0.03240000
opls_146-100    H    0.57655986    0.04785997    0.56759943    0.10640000
opls_702-101    H    0.44767999    0.05244014    0.35371023    0.14740000
opls_702-102    H    0.44761988    0.05239986    0.78144034    0.14740000
opls_702-103    H    0.41085997    0.00750008    0.56721023    0.11230000
opls_146-104    H    0.28849980    0.69908976    0.55888920    0.07560000
opls_146-105    H    0.23316013    0.65609001    0.25659091    0.22290000
opls_146-106    H    0.15648994    0.61187986    0.25932102    0.22290000
opls_146-107    H    0.16662006    0.52229995    0.86444886    0.22290000
opls_146-108    H    0.24355007    0.56667987    0.85963068    0.21620000
opls_144-109    H    0.10169991    0.58837988    0.58125000    0.03240000
opls_146-110    H    0.95213992    0.52869990    0.56759943    0.10650000
opls_702-111    H    0.94755995    0.39524009    0.35371023    0.14740000
opls_702-112    H    0.94760005    0.39521995    0.78144034    0.14740000
opls_702-113    H    0.99249991    0.40336009    0.56721023    0.11230000
opls_146-114    H    0.69909005    0.41059002    0.55888920    0.07800000
opls_146-115    H    0.65608983    0.42292987    0.25659091    0.22290000
opls_146-116    H    0.61188011    0.45539004    0.25932102    0.22290000
opls_146-117    H    0.52229979    0.35567980    0.86444886    0.22290000
opls_146-118    H    0.56668018    0.32313010    0.85963068    0.21620000
opls_144-119    H    0.58837999    0.48668007    0.58125000    0.03240000
opls_146-120    H    0.52870004    0.57655988    0.56759943    0.10640000
opls_702-121    H    0.39524005    0.44767991    0.35371023    0.14740000
opls_702-122    H    0.39521993    0.44761981    0.78144034    0.14740000
opls_702-123    H    0.40336000    0.41085986    0.56721023    0.11230000
opls_146-124    H    0.58940991    0.28850006    0.55888920    0.07800000
opls_146-125    H    0.57706988    0.23315983    0.25659091    0.22290000
opls_146-126    H    0.54460998    0.15649013    0.25932102    0.22300000
opls_146-127    H    0.64431985    0.16661983    0.86444886    0.22290000
opls_146-128    H    0.67687005    0.24355008    0.85963068    0.21620000
opls_144-129    H    0.51332008    0.10170012    0.58125000    0.03240000
opls_146-130    H    0.42343999    0.95213972    0.56759943    0.10640000
opls_702-131    H    0.55232001    0.94755986    0.35371023    0.14740000
opls_702-132    H    0.55237997    0.94759983    0.78144034    0.14740000
opls_702-133    H    0.58914003    0.99249992    0.56721023    0.11230000
opls_146-134    H    0.71150004    0.30090993    0.55888920    0.07560000
opls_146-135    H    0.76683987    0.34390999    0.25659091    0.22290000
opls_146-136    H    0.84350990    0.38811983    0.25932102    0.22290000
opls_146-137    H    0.83337994    0.47770005    0.86444886    0.22300000
opls_146-138    H    0.75644978    0.43331982    0.85963068    0.21620000
opls_144-139    H    0.89829994    0.41161981    0.58125000    0.03240000
opls_146-140    H    0.04785993    0.47129979    0.56759943    0.10640000
opls_702-141    H    0.05244005    0.60475991    0.35371023    0.14740000
opls_702-142    H    0.05239995    0.60478005    0.78144034    0.14740000
opls_702-143    H    0.00750009    0.59663991    0.56721023    0.11230000
