#======================================================================
# Crystal Data Generated By AuToFF
#----------------------------------------------------------------------

data_AuToFF_phase_1

_cell_length_a                         44.3000
_cell_length_b                         44.3000
_cell_length_c                         3.7300
_cell_angle_alpha                      90.00
_cell_angle_beta                       90.00
_cell_angle_gamma                      120.00
_symmetry_space_group_name_H-M_alt     'P 1'
_symmetry_space_group_IT_number        1

loop_
_space_group_symop_operation_xyz
   'x, y, z'

loop_
   _atom_site_label
   _atom_site_type_symbol
   _atom_site_fract_x
   _atom_site_fract_y
   _atom_site_fract_z
   _atom_site_charge
opls_520-0    N    0.67771995    0.31022004    0.50180965    -0.51370000
opls_750-1    N    0.87225983    0.42488987    0.49252011    -0.33790000
opls_520-2    N    0.68978000    0.36749995    0.50180965    -0.51370000
opls_750-3    N    0.57511007    0.44737003    0.49252011    -0.33800000
opls_520-4    N    0.63250005    0.32228001    0.50180965    -0.51370000
opls_750-5    N    0.55263010    0.12774010    0.49252011    -0.33790000
opls_520-6    N    0.32228005    0.68977996    0.50180965    -0.51360000
opls_750-7    N    0.12774004    0.57510987    0.49252011    -0.33800000
opls_520-8    N    0.31022000    0.63250005    0.50180965    -0.51370000
opls_750-9    N    0.42488993    0.55262997    0.49252011    -0.33800000
opls_520-10    N    0.36749995    0.67771999    0.50180965    -0.51370000
opls_750-11    N    0.44736990    0.87225990    0.49252011    -0.33800000
opls_531-12    C    0.70194002    0.34475001    0.50180965    0.30080000
opls_700-13    C    0.73809002    0.35645002    0.50160054    0.00680000
opls_523-14    C    0.75059011    0.33261002    0.51341019    -0.19230000
opls_145-15    C    0.78649991    0.34417996    0.51287936    -0.19240000
opls_700-16    C    0.81149987    0.38010991    0.50049062    0.04560000
opls_145-17    C    0.79919983    0.40403984    0.48879088    -0.19230000
opls_523-18    C    0.76325993    0.39243001    0.48942091    -0.19230000
opls_142-19    C    0.84732010    0.39087000    0.49971046    0.09780000
opls_700-20    C    0.98169002    0.48858997    0.48234048    0.05510000
opls_145-21    C    0.95863990    0.49998996    0.59698928    -0.21630000
opls_145-22    C    0.92241994    0.47748999    0.59253083    -0.22330000
opls_145-23    C    0.90766993    0.44252994    0.47916086    0.16210000
opls_700-24    C    0.93030000    0.43028985    0.36106971    0.06890000
opls_145-25    C    0.96680007    0.45362001    0.36508043    -0.10820000
opls_148-26    C    0.91758990    0.39435000    0.22573995    -0.47130000
opls_531-27    C    0.65525009    0.35719002    0.50180965    0.30080000
opls_700-28    C    0.64355000    0.38163995    0.50160054    0.00680000
opls_523-29    C    0.66738996    0.41797991    0.51341019    -0.19230000
opls_145-30    C    0.65581997    0.44231985    0.51287936    -0.19240000
opls_700-31    C    0.61989007    0.43139007    0.50049062    0.04560000
opls_145-32    C    0.59595983    0.39515985    0.48879088    -0.19230000
opls_523-33    C    0.60757012    0.37083008    0.48942091    -0.19230000
opls_142-34    C    0.60912994    0.45644994    0.49971046    0.09780000
opls_700-35    C    0.51140995    0.49309982    0.48234048    0.05510000
opls_145-36    C    0.50001003    0.45864987    0.59698928    -0.21630000
opls_145-37    C    0.52250994    0.44493004    0.59253083    -0.22330000
opls_145-38    C    0.55746995    0.46513991    0.47916086    0.16210000
opls_700-39    C    0.56970998    0.50001004    0.36106971    0.06890000
opls_145-40    C    0.54638001    0.51317988    0.36508043    -0.10820000
opls_148-41    C    0.60564994    0.52323984    0.22573995    -0.47130000
opls_531-42    C    0.64280990    0.29805997    0.50180965    0.30080000
opls_700-43    C    0.61835998    0.26191003    0.50160054    0.00680000
opls_523-44    C    0.58201994    0.24941007    0.51341019    -0.19230000
opls_145-45    C    0.55767999    0.21349993    0.51287936    -0.19240000
opls_700-46    C    0.56861005    0.18850002    0.50049062    0.04560000
opls_145-47    C    0.60483998    0.20080005    0.48879088    -0.19230000
opls_523-48    C    0.62916995    0.23673991    0.48942091    -0.19230000
opls_142-49    C    0.54354996    0.15268006    0.49971046    0.09780000
opls_700-50    C    0.50689990    0.01830995    0.48234048    0.05510000
opls_145-51    C    0.54134993    0.04135991    0.59698928    -0.21630000
opls_145-52    C    0.55506989    0.07757997    0.59253083    -0.22330000
opls_145-53    C    0.53485998    0.09232990    0.47916086    0.16210000
opls_700-54    C    0.49999001    0.06970011    0.36106971    0.06890000
opls_145-55    C    0.48682015    0.03320011    0.36508043    -0.10810000
opls_148-56    C    0.47676003    0.08240990    0.22573995    -0.47130000
opls_531-57    C    0.29805998    0.65524999    0.50180965    0.30080000
opls_700-58    C    0.26190998    0.64354998    0.50160054    0.00680000
opls_523-59    C    0.24940989    0.66738998    0.51341019    -0.19230000
opls_145-60    C    0.21350009    0.65582004    0.51287936    -0.19240000
opls_700-61    C    0.18849999    0.61988983    0.50049062    0.04570000
opls_145-62    C    0.20080004    0.59595990    0.48879088    -0.19230000
opls_523-63    C    0.23674007    0.60756999    0.48942091    -0.19230000
opls_142-64    C    0.15267990    0.60913000    0.49971046    0.09790000
opls_700-65    C    0.01830998    0.51141003    0.48234048    0.05510000
opls_145-66    C    0.04136010    0.50001004    0.59698928    -0.21630000
opls_145-67    C    0.07758006    0.52251001    0.59253083    -0.22330000
opls_145-68    C    0.09232994    0.55746980    0.47916086    0.16210000
opls_700-69    C    0.06969987    0.56970989    0.36106971    0.06890000
opls_145-70    C    0.03319993    0.54637999    0.36508043    -0.10900000
opls_148-71    C    0.08241010    0.60565000    0.22573995    -0.47130000
opls_531-72    C    0.34474991    0.64280998    0.50180965    0.30080000
opls_700-73    C    0.35645000    0.61836005    0.50160054    0.00680000
opls_523-74    C    0.33260991    0.58201983    0.51341019    -0.19230000
opls_145-75    C    0.34417990    0.55767989    0.51287936    -0.19240000
opls_700-76    C    0.38010993    0.56860993    0.50049062    0.04560000
opls_145-77    C    0.40404003    0.60483989    0.48879088    -0.19230000
opls_523-78    C    0.39242988    0.62916992    0.48942091    -0.19230000
opls_142-79    C    0.39087006    0.54355006    0.49971046    0.09780000
opls_700-80    C    0.48858992    0.50689992    0.48234048    0.05510000
opls_145-81    C    0.49998984    0.54134987    0.59698928    -0.21630000
opls_145-82    C    0.47749006    0.55506996    0.59253083    -0.22320000
opls_145-83    C    0.44252992    0.53485983    0.47916086    0.16210000
opls_700-84    C    0.43029002    0.49998996    0.36106971    0.06890000
opls_145-85    C    0.45361986    0.48681986    0.36508043    -0.10890000
opls_148-86    C    0.39434992    0.47675990    0.22573995    -0.47120000
opls_531-87    C    0.35719010    0.70194003    0.50180965    0.30090000
opls_700-88    C    0.38164002    0.73808997    0.50160054    0.00680000
opls_523-89    C    0.41798006    0.75058993    0.51341019    -0.19230000
opls_145-90    C    0.44231988    0.78649981    0.51287936    -0.19240000
opls_700-91    C    0.43138995    0.81149998    0.50049062    0.04560000
opls_145-92    C    0.39516002    0.79919995    0.48879088    -0.19230000
opls_523-93    C    0.37082992    0.76325983    0.48942091    -0.19230000
opls_142-94    C    0.45645004    0.84731994    0.49971046    0.09780000
opls_700-95    C    0.49309997    0.98168979    0.48234048    0.05510000
opls_145-96    C    0.45864994    0.95863983    0.59698928    -0.21620000
opls_145-97    C    0.44492998    0.92241977    0.59253083    -0.22330000
opls_145-98    C    0.46513989    0.90766984    0.47916086    0.16210000
opls_700-99    C    0.50000999    0.93029989    0.36106971    0.06890000
opls_145-100    C    0.51317985    0.96679989    0.36508043    -0.10900000
opls_148-101    C    0.52323984    0.91758984    0.22573995    -0.47130000
opls_526-102    H    0.73368002    0.30631986    0.52282038    0.21280000
opls_146-103    H    0.79418995    0.32589998    0.52168901    0.21270000
opls_146-104    H    0.81625993    0.43030992    0.47946917    0.21270000
opls_526-105    H    0.75578999    0.41084996    0.48042091    0.21270000
opls_144-106    H    0.85435992    0.37224986    0.51064075    0.10410000
opls_146-107    H    0.96798993    0.52489995    0.68797051    0.21270000
opls_146-108    H    0.90679994    0.48705993    0.67669973    0.21270000
opls_146-109    H    0.98302987    0.44497983    0.27643968    0.21270000
opls_702-110    H    0.93779012    0.39174006    0.08528954    0.10490000
opls_702-111    H    0.89626992    0.38711005    0.03801877    0.10320000
opls_702-112    H    0.90851994    0.37582996    0.44664879    0.10200000
opls_526-113    H    0.69367992    0.42735983    0.52282038    0.21270000
opls_146-114    H    0.67410004    0.46828992    0.52168901    0.21270000
opls_146-115    H    0.56968984    0.38594988    0.47946917    0.21280000
opls_526-116    H    0.58914992    0.34494003    0.48042091    0.21270000
opls_144-117    H    0.62774995    0.48210983    0.51064075    0.10410000
opls_146-118    H    0.47509999    0.44308982    0.68797051    0.21270000
opls_146-119    H    0.51293990    0.41973985    0.67669973    0.21270000
opls_146-120    H    0.55502003    0.53804998    0.27643968    0.21270000
opls_702-121    H    0.60825999    0.54605000    0.08528954    0.10490000
opls_702-122    H    0.61288996    0.50916006    0.03801877    0.10320000
opls_702-123    H    0.62417000    0.53268988    0.44664879    0.10200000
opls_526-124    H    0.57263993    0.26632005    0.52282038    0.21270000
opls_146-125    H    0.53171002    0.20581010    0.52168901    0.21270000
opls_146-126    H    0.61404988    0.18373994    0.47946917    0.21270000
opls_526-127    H    0.65506008    0.24421001    0.48042091    0.21270000
opls_144-128    H    0.51789000    0.14564004    0.51064075    0.10410000
opls_146-129    H    0.55690995    0.03200996    0.68797051    0.21280000
opls_146-130    H    0.58026003    0.09319996    0.67669973    0.21270000
opls_146-131    H    0.46194997    0.01696993    0.27643968    0.21270000
opls_702-132    H    0.45394989    0.06220994    0.08528954    0.10490000
opls_702-133    H    0.49083989    0.10372989    0.03801877    0.10320000
opls_702-134    H    0.46730993    0.09147990    0.44664879    0.10200000
opls_526-135    H    0.26631985    0.69367988    0.52282038    0.21270000
opls_146-136    H    0.20581005    0.67410002    0.52168901    0.21280000
opls_146-137    H    0.18373994    0.56968982    0.47946917    0.21270000
opls_526-138    H    0.24421001    0.58915004    0.48042091    0.21270000
opls_144-139    H    0.14563995    0.62774987    0.51064075    0.10410000
opls_146-140    H    0.03201007    0.47510005    0.68797051    0.21270000
opls_146-141    H    0.09319993    0.51293981    0.67669973    0.21270000
opls_146-142    H    0.01697000    0.55501991    0.27643968    0.21270000
opls_702-143    H    0.06220988    0.60825994    0.08528954    0.10490000
opls_702-144    H    0.10373008    0.61288995    0.03801877    0.10320000
opls_702-145    H    0.09148006    0.62417004    0.44664879    0.10200000
opls_526-146    H    0.30631995    0.57263991    0.52282038    0.21270000
opls_146-147    H    0.32589983    0.53170982    0.52168901    0.21280000
opls_146-148    H    0.43031003    0.61404986    0.47946917    0.21270000
opls_526-149    H    0.41085008    0.65505997    0.48042091    0.21270000
opls_144-150    H    0.37224992    0.51788991    0.51064075    0.10410000
opls_146-151    H    0.52489988    0.55690992    0.68797051    0.21270000
opls_146-152    H    0.48705997    0.58025989    0.67669973    0.21270000
opls_146-153    H    0.44497997    0.46195002    0.27643968    0.21280000
opls_702-154    H    0.39174001    0.45395000    0.08528954    0.10490000
opls_702-155    H    0.38711004    0.49083994    0.03801877    0.10320000
opls_702-156    H    0.37582987    0.46730986    0.44664879    0.10200000
opls_526-157    H    0.42736007    0.73367995    0.52282038    0.21270000
opls_146-158    H    0.46828998    0.79418990    0.52168901    0.21270000
opls_146-159    H    0.38594999    0.81625980    0.47946917    0.21270000
opls_526-160    H    0.34493992    0.75578999    0.48042091    0.21280000
opls_144-161    H    0.48211000    0.85435996    0.51064075    0.10410000
opls_146-162    H    0.44308992    0.96798978    0.68797051    0.21270000
opls_146-163    H    0.41973984    0.90679978    0.67669973    0.21270000
opls_146-164    H    0.53804990    0.98302981    0.27643968    0.21270000
opls_702-165    H    0.54604998    0.93778980    0.08528954    0.10490000
opls_702-166    H    0.50915998    0.89626985    0.03801877    0.10320000
opls_702-167    H    0.53268994    0.90851984    0.44664879    0.10200000
