#======================================================================
# Crystal Data Generated By AuToFF
#----------------------------------------------------------------------

data_AuToFF_phase_1

_cell_length_a                         35.0000
_cell_length_b                         35.0000
_cell_length_c                         3.4400
_cell_angle_alpha                      90.00
_cell_angle_beta                       90.00
_cell_angle_gamma                      120.00
_symmetry_space_group_name_H-M_alt     'P 1'
_symmetry_space_group_IT_number        1

loop_
_space_group_symop_operation_xyz
   'x, y, z'

loop_
   _atom_site_label
   _atom_site_type_symbol
   _atom_site_fract_x
   _atom_site_fract_y
   _atom_site_fract_z
   _atom_site_charge
opls_144-0    H    0.68877014    0.82234999    0.00000000    0.10180000
opls_144-1    H    0.81016993    0.95317986    0.00000000    0.11870000
opls_146-2    H    0.69691013    0.93994997    0.00000000    0.09760000
opls_146-3    H    0.63284999    0.92733998    0.00000000    0.09660000
opls_146-4    H    0.55907010    0.91418992    0.00000000    0.11380000
opls_144-5    H    0.50457997    0.93917994    0.00000000    0.11270000
opls_146-6    H    0.39296003    0.94618007    0.00000000    0.11900000
opls_146-7    H    0.31869991    0.93127981    0.00000000    0.09650000
opls_146-8    H    0.25482987    0.91939003    0.00000000    0.23030000
opls_146-9    H    0.16514996    0.96825992    0.00000000    0.10780000
opls_144-10    H    0.17764998    0.86641996    0.00000000    0.10180000
opls_144-11    H    0.04682015    0.85699001    0.00000000    0.11880000
opls_146-12    H    0.06004998    0.75695996    0.00000000    0.09760000
opls_146-13    H    0.07266021    0.70551013    0.00000000    0.09660000
opls_146-14    H    0.08581005    0.64488011    0.00000000    0.11380000
opls_144-15    H    0.06082005    0.56540009    0.00000000    0.11270000
opls_146-16    H    0.05382001    0.44678002    0.00000000    0.11900000
opls_146-17    H    0.06871992    0.38741983    0.00000000    0.09650000
opls_146-18    H    0.08060992    0.33543984    0.00000000    0.23040000
opls_146-19    H    0.03174012    0.19688996    0.00000000    0.10780000
opls_144-20    H    0.13357989    0.31123006    0.00000000    0.10180000
opls_144-21    H    0.14300992    0.18983012    0.00000000    0.11870000
opls_146-22    H    0.24304018    0.30309008    0.00000000    0.09770000
opls_146-23    H    0.29449009    0.36714989    0.00000000    0.09650000
opls_146-24    H    0.35512013    0.44092998    0.00000000    0.11380000
opls_144-25    H    0.43459998    0.49541996    0.00000000    0.11270000
opls_146-26    H    0.55321996    0.60703991    0.00000000    0.11680000
opls_146-27    H    0.61258001    0.68130002    0.00000000    0.09650000
opls_146-28    H    0.66456021    0.74517014    0.00000000    0.23030000
opls_146-29    H    0.80310991    0.83485011    0.00000000    0.10780000
opls_144-30    H    0.31123015    0.17765001    0.00000000    0.10180000
opls_144-31    H    0.18983007    0.04682014    0.00000000    0.11870000
opls_146-32    H    0.30309016    0.06005003    0.00000000    0.09760000
opls_146-33    H    0.36715001    0.07266002    0.00000000    0.09650000
opls_146-34    H    0.44093018    0.08581008    0.00000000    0.11380000
opls_144-35    H    0.49542003    0.06082006    0.00000000    0.11270000
opls_146-36    H    0.60703997    0.05381993    0.00000000    0.11900000
opls_146-37    H    0.68129993    0.06871986    0.00000000    0.09650000
opls_146-38    H    0.74517013    0.08060997    0.00000000    0.23030000
opls_146-39    H    0.83485004    0.03174008    0.00000000    0.10780000
opls_144-40    H    0.82235002    0.13358004    0.00000000    0.10180000
opls_144-41    H    0.95317985    0.14300999    0.00000000    0.11870000
opls_146-42    H    0.93995002    0.24304004    0.00000000    0.09760000
opls_146-43    H    0.92734008    0.29448987    0.00000000    0.09650000
opls_146-44    H    0.91418995    0.35511989    0.00000000    0.11380000
opls_144-45    H    0.93917995    0.43459991    0.00000000    0.11270000
opls_146-46    H    0.94617999    0.55321998    0.00000000    0.11900000
opls_146-47    H    0.93127992    0.61257984    0.00000000    0.09650000
opls_146-48    H    0.91938992    0.66455983    0.00000000    0.23030000
opls_146-49    H    0.96826016    0.80311004    0.00000000    0.10780000
opls_144-50    H    0.86642011    0.68876994    0.00000000    0.10180000
opls_144-51    H    0.85699008    0.81016988    0.00000000    0.11870000
opls_146-52    H    0.75695982    0.69690992    0.00000000    0.09760000
opls_146-53    H    0.70550991    0.63285011    0.00000000    0.09650000
opls_146-54    H    0.64487987    0.55907002    0.00000000    0.11380000
opls_144-55    H    0.56540002    0.50458004    0.00000000    0.11270000
opls_146-56    H    0.44678004    0.39296009    0.00000000    0.11680000
opls_146-57    H    0.38741999    0.31869998    0.00000000    0.09650000
opls_146-58    H    0.33543979    0.25482986    0.00000000    0.23030000
opls_146-59    H    0.19689009    0.16514989    0.00000000    0.10790000
opls_142-60    C    0.72279013    0.82974997    0.00000000    0.01290000
opls_142-61    C    0.77610004    0.94560008    0.00000000    0.01290000
opls_700-62    C    0.76629996    0.98205991    0.00000000    0.05760000
opls_145-63    C    0.72267010    0.97388991    0.00000000    -0.17650000
opls_700-64    C    0.66587015    0.99971001    0.00000000    0.06340000
opls_145-65    C    0.62933993    0.95613986    0.00000000    -0.13010000
opls_145-66    C    0.58598991    0.94801010    0.00000000    -0.12070000
opls_700-67    C    0.57729002    0.98282004    0.00000000    0.05330000
opls_142-68    C    0.53114993    0.97321986    0.00000000    0.01300000
opls_145-69    C    0.38724994    0.97385989    0.00000000    -0.11710000
opls_145-70    C    0.34381990    0.96551009    0.00000000    -0.13010000
opls_700-71    C    0.28692991    0.99129983    0.00000000    0.06360000
opls_145-72    C    0.25051005    0.94772011    0.00000000    -0.17730000
opls_700-73    C    0.20687984    0.93920997    0.00000000    0.06650000
opls_145-74    C    0.19875012    0.97378995    0.00000000    -0.14100000
opls_142-75    C    0.17025005    0.89304009    0.00000000    0.01290000
opls_142-76    C    0.05439993    0.83049986    0.00000000    0.01300000
opls_700-77    C    0.01793996    0.78423992    0.00000000    0.05760000
opls_145-78    C    0.02611003    0.74878006    0.00000000    -0.17650000
opls_700-79    C    0.00028996    0.66615992    0.00000000    0.06340000
opls_145-80    C    0.04385998    0.67319996    0.00000000    -0.13010000
opls_145-81    C    0.05198997    0.63797995    0.00000000    -0.12070000
opls_700-82    C    0.01717978    0.59446984    0.00000000    0.05330000
opls_142-83    C    0.02677978    0.55792984    0.00000000    0.01300000
opls_145-84    C    0.02614016    0.41339004    0.00000000    -0.11720000
opls_145-85    C    0.03449010    0.37830991    0.00000000    -0.13010000
opls_700-86    C    0.00870017    0.29563005    0.00000000    0.06350000
opls_145-87    C    0.05228007    0.30278986    0.00000000    -0.17720000
opls_700-88    C    0.06078992    0.26767013    0.00000000    0.06650000
opls_145-89    C    0.02621004    0.22496007    0.00000000    -0.14090000
opls_142-90    C    0.10696011    0.27720994    0.00000000    0.01290000
opls_142-91    C    0.16950003    0.22390006    0.00000000    0.01290000
opls_700-92    C    0.21575992    0.23369984    0.00000000    0.05760000
opls_145-93    C    0.25121987    0.27733003    0.00000000    -0.17640000
opls_700-94    C    0.33384018    0.33413008    0.00000000    0.06350000
opls_145-95    C    0.32679993    0.37065985    0.00000000    -0.13010000
opls_145-96    C    0.36202012    0.41400995    0.00000000    -0.12070000
opls_700-97    C    0.40552992    0.42271012    0.00000000    0.05330000
opls_142-98    C    0.44206984    0.46884997    0.00000000    0.01300000
opls_145-99    C    0.58661018    0.61275007    0.00000000    -0.11710000
opls_145-100    C    0.62169000    0.65618001    0.00000000    -0.13010000
opls_700-101    C    0.70436992    0.71307012    0.00000000    0.06350000
opls_145-102    C    0.69720987    0.74949003    0.00000000    -0.17730000
opls_700-103    C    0.73232995    0.79311990    0.00000000    0.06650000
opls_145-104    C    0.77504013    0.80124998    0.00000000    -0.14090000
opls_142-105    C    0.27720987    0.17025003    0.00000000    0.01290000
opls_142-106    C    0.22389996    0.05439992    0.00000000    0.01290000
opls_700-107    C    0.23370004    0.01794009    0.00000000    0.05760000
opls_145-108    C    0.27732990    0.02611009    0.00000000    -0.17650000
opls_700-109    C    0.33412985    0.00028999    0.00000000    0.06340000
opls_145-110    C    0.37066007    0.04386014    0.00000000    -0.13010000
opls_145-111    C    0.41400980    0.05198990    0.00000000    -0.12070000
opls_700-112    C    0.42270998    0.01717996    0.00000000    0.05330000
opls_142-113    C    0.46885007    0.02678014    0.00000000    0.01310000
opls_145-114    C    0.61275006    0.02614011    0.00000000    -0.11710000
opls_145-115    C    0.65618010    0.03448991    0.00000000    -0.13010000
opls_700-116    C    0.71306992    0.00869984    0.00000000    0.06350000
opls_145-117    C    0.74948995    0.05227989    0.00000000    -0.17730000
opls_700-118    C    0.79311987    0.06079003    0.00000000    0.06650000
opls_145-119    C    0.80124988    0.02621005    0.00000000    -0.14100000
opls_142-120    C    0.82974995    0.10695991    0.00000000    0.01290000
opls_142-121    C    0.94560007    0.16950014    0.00000000    0.01290000
opls_700-122    C    0.98206004    0.21576008    0.00000000    0.05760000
opls_145-123    C    0.97388997    0.25121994    0.00000000    -0.17650000
opls_700-124    C    0.99971004    0.33384008    0.00000000    0.06340000
opls_145-125    C    0.95614002    0.32680004    0.00000000    -0.13010000
opls_145-126    C    0.94801003    0.36202005    0.00000000    -0.12070000
opls_700-127    C    0.98282006    0.40552983    0.00000000    0.05330000
opls_142-128    C    0.97321977    0.44206983    0.00000000    0.01300000
opls_145-129    C    0.97385984    0.58660996    0.00000000    -0.11710000
opls_145-130    C    0.96550990    0.62169009    0.00000000    -0.13010000
opls_700-131    C    0.99130012    0.70436995    0.00000000    0.06350000
opls_145-132    C    0.94771993    0.69721014    0.00000000    -0.17730000
opls_700-133    C    0.93920979    0.73232987    0.00000000    0.06650000
opls_145-134    C    0.97378996    0.77503993    0.00000000    -0.14100000
opls_142-135    C    0.89304017    0.72279006    0.00000000    0.01290000
opls_142-136    C    0.83049997    0.77609994    0.00000000    0.01290000
opls_700-137    C    0.78423992    0.76629983    0.00000000    0.05760000
opls_145-138    C    0.74878013    0.72266997    0.00000000    -0.17650000
opls_700-139    C    0.66615982    0.66586992    0.00000000    0.06340000
opls_145-140    C    0.67319991    0.62933982    0.00000000    -0.13010000
opls_145-141    C    0.63797988    0.58599005    0.00000000    -0.12050000
opls_700-142    C    0.59447008    0.57728988    0.00000000    0.05330000
opls_142-143    C    0.55792987    0.53115003    0.00000000    0.01300000
opls_145-144    C    0.41338982    0.38724993    0.00000000    -0.11720000
opls_145-145    C    0.37831000    0.34381999    0.00000000    -0.13000000
opls_700-146    C    0.29563008    0.28692988    0.00000000    0.06360000
opls_145-147    C    0.30279013    0.25050997    0.00000000    -0.17730000
opls_700-148    C    0.26767005    0.20688010    0.00000000    0.06650000
opls_145-149    C    0.22496015    0.19875002    0.00000000    -0.14100000
opls_750-150    N    0.75427994    0.87047988    0.00000000    -0.18320000
opls_750-151    N    0.74473001    0.90482002    0.00000000    -0.17880000
opls_750-152    N    0.47806996    0.99527991    0.00000000    -0.18330000
opls_750-153    N    0.12951992    0.88379985    0.00000000    -0.17880000
opls_750-154    N    0.09518015    0.83991001    0.00000000    -0.17870000
opls_750-155    N    0.00471978    0.48278985    0.00000000    -0.18330000
opls_750-156    N    0.11619997    0.24571994    0.00000000    -0.18330000
opls_750-157    N    0.16009013    0.25526997    0.00000000    -0.17870000
opls_750-158    N    0.51720981    0.52192991    0.00000000    -0.18330000
opls_750-159    N    0.24572006    0.12952012    0.00000000    -0.18330000
opls_750-160    N    0.25526999    0.09517998    0.00000000    -0.17870000
opls_750-161    N    0.52193004    0.00472009    0.00000000    -0.18330000
opls_750-162    N    0.87048008    0.11620015    0.00000000    -0.18320000
opls_750-163    N    0.90482014    0.16008999    0.00000000    -0.17880000
opls_750-164    N    0.99528005    0.51720982    0.00000000    -0.18320000
opls_750-165    N    0.88380003    0.75428006    0.00000000    -0.18320000
opls_750-166    N    0.83990987    0.74473003    0.00000000    -0.17880000
opls_750-167    N    0.48279019    0.47807009    0.00000000    -0.18330000
