#======================================================================
# Crystal Data Generated By AuToFF
#----------------------------------------------------------------------

data_AuToFF_phase_1

_cell_length_a                         15.9259
_cell_length_b                         16.1041
_cell_length_c                         7.7722
_cell_angle_alpha                      90.63
_cell_angle_beta                       92.26
_cell_angle_gamma                      119.12
_symmetry_space_group_name_H-M_alt     'P 1'
_symmetry_space_group_IT_number        1

loop_
_space_group_symop_operation_xyz
   'x, y, z'

loop_
   _atom_site_label
   _atom_site_type_symbol
   _atom_site_fract_x
   _atom_site_fract_y
   _atom_site_fract_z
   _atom_site_charge
opls_521-0    C    0.08529985    0.49654997    0.11061980    0.12130000
opls_522-1    C    0.17138987    0.49985969    0.16302950    -0.20220000
opls_700-2    C    0.25655980    0.58850003    0.18798975    0.03020000
opls_700-3    C    0.25137971    0.67318993    0.16523010    0.03000000
opls_522-4    C    0.16049032    0.66658042    0.15194021    -0.21030000
opls_521-5    C    0.08071035    0.58069042    0.10683060    0.13580000
opls_700-6    C    0.33416989    0.75727045    0.12105974    0.03090000
opls_700-7    C    0.42123999    0.75551040    0.10196945    0.03140000
opls_700-8    C    0.43041023    0.67862002    0.16483971    0.02740000
opls_700-9    C    0.34741990    0.59424021    0.20897013    0.03000000
opls_522-10    C    0.35703984    0.51520024    0.25651997    -0.21090000
opls_521-11    C    0.44194023    0.51407037    0.22890045    0.12990000
opls_521-12    C    0.52350025    0.59799035    0.18719996    0.15860000
opls_522-13    C    0.51973035    0.68132026    0.17324010    -0.20540000
opls_522-14    C    0.49421023    0.82734009    0.00866967    -0.21290000
opls_521-15    C    0.48534965    0.90378998    0.95100070    0.15610000
opls_521-16    C    0.40302961    0.90956001    0.98408048    0.12440000
opls_522-17    C    0.32936990    0.83861048    0.07037006    -0.21080000
opls_521-18    C    0.59376973    0.50521999    0.07098978    0.15770000
opls_521-19    C    0.51395017    0.42106019    0.11584943    0.12890000
opls_522-20    C    0.50343015    0.33427001    0.05922021    -0.23080000
opls_700-21    C    0.57683967    0.33071011    0.96774996    0.03020000
opls_700-22    C    0.66119973    0.41635989    0.93750081    0.02760000
opls_522-23    C    0.66243963    0.50262993    0.97259049    -0.21000000
opls_700-24    C    0.74612946    0.41377958    0.90209031    0.02760000
opls_700-25    C    0.74571969    0.32557016    0.89794036    0.03070000
opls_700-26    C    0.65680016    0.24086995    0.88244086    0.03060000
opls_700-27    C    0.57153004    0.24413999    0.91708089    0.02660000
opls_522-28    C    0.48356974    0.15995959    0.90936077    -0.21040000
opls_521-29    C    0.48055020    0.07338003    0.89132054    0.16770000
opls_521-30    C    0.56409979    0.06888002    0.86009993    0.13170000
opls_522-31    C    0.65081977    0.15216974    0.84597000    -0.20380000
opls_522-32    C    0.83322994    0.32499968    0.93388039    -0.21080000
opls_521-33    C    0.91713001    0.40969984    0.97872974    0.13590000
opls_521-34    C    0.91651950    0.49561975    0.96637008    0.12660000
opls_522-35    C    0.83463994    0.49746998    0.91073034    -0.23370000
opls_521-36    C    0.08529985    0.49654997    0.61061980    0.12130000
opls_522-37    C    0.17138991    0.49985972    0.66303079    -0.20220000
opls_700-38    C    0.25655980    0.58850003    0.68798975    0.03020000
opls_700-39    C    0.25137971    0.67318993    0.66523010    0.03000000
opls_522-40    C    0.16048997    0.66657971    0.65194021    -0.21040000
opls_521-41    C    0.08071000    0.58068971    0.60683060    0.13580000
opls_700-42    C    0.33416954    0.75726974    0.62105974    0.03090000
opls_700-43    C    0.42123967    0.75550971    0.60197074    0.03140000
opls_700-44    C    0.43040960    0.67862002    0.66483971    0.02740000
opls_700-45    C    0.34741990    0.59424021    0.70897013    0.03000000
opls_522-46    C    0.35703984    0.51520024    0.75651997    -0.21090000
opls_521-47    C    0.44193988    0.51406966    0.72890045    0.12990000
opls_521-48    C    0.52349990    0.59798964    0.68719996    0.15860000
opls_522-49    C    0.51972972    0.68132026    0.67324010    -0.20550000
opls_522-50    C    0.49421023    0.82734009    0.50866967    -0.21300000
opls_521-51    C    0.48534965    0.90378998    0.45100070    0.15610000
opls_521-52    C    0.40302961    0.90956001    0.48408048    0.12440000
opls_522-53    C    0.32936955    0.83860976    0.57037006    -0.21080000
opls_521-54    C    0.59376973    0.50521999    0.57098978    0.15770000
opls_521-55    C    0.51395021    0.42106022    0.61585072    0.12890000
opls_522-56    C    0.50343015    0.33427001    0.55922021    -0.23080000
opls_700-57    C    0.57684029    0.33071011    0.46774996    0.03020000
opls_700-58    C    0.66119970    0.41635986    0.43749952    0.02760000
opls_522-59    C    0.66243963    0.50262993    0.47259049    -0.20990000
opls_700-60    C    0.74612981    0.41378029    0.40209031    0.02760000
opls_700-61    C    0.74572032    0.32557016    0.39794036    0.03070000
opls_700-62    C    0.65680012    0.24086992    0.38243957    0.03060000
opls_700-63    C    0.57153000    0.24413996    0.41707960    0.02660000
opls_522-64    C    0.48357005    0.15996027    0.40935948    -0.21040000
opls_521-65    C    0.48055020    0.07338003    0.39132054    0.16770000
opls_521-66    C    0.56409979    0.06888002    0.36009993    0.13170000
opls_522-67    C    0.65081977    0.15216974    0.34597000    -0.20370000
opls_522-68    C    0.83322994    0.32499968    0.43388039    -0.21070000
opls_521-69    C    0.91712968    0.40970003    0.47874004    0.13590000
opls_521-70    C    0.91651950    0.49561975    0.46637008    0.12660000
opls_522-71    C    0.83463994    0.49746998    0.41073034    -0.23370000
opls_238-72    N    0.60518015    0.59443022    0.12914061    -0.39270000
opls_238-73    N    0.44259993    0.42572037    0.21545982    -0.39240000
opls_238-74    N    0.00378006    0.40925028    0.04791060    -0.40360000
opls_238-75    N    0.99795978    0.58069990    0.03278988    -0.38440000
opls_238-76    N    0.39515999    0.98917012    0.92970081    -0.38560000
opls_238-77    N    0.56152953    0.97901979    0.86564007    -0.39240000
opls_238-78    N    0.60518015    0.59443022    0.62914061    -0.39260000
opls_238-79    N    0.44259958    0.42571966    0.71545982    -0.39240000
opls_238-80    N    0.00378006    0.40925028    0.54791060    -0.40350000
opls_238-81    N    0.99795978    0.58069990    0.53278988    -0.38460000
opls_238-82    N    0.39515995    0.98917010    0.42969952    -0.38570000
opls_238-83    N    0.56152953    0.97901979    0.36564007    -0.39250000
opls_525-84    H    0.17252040    0.43362031    0.15997985    0.11670000
opls_525-85    H    0.15022961    0.72748984    0.15052039    0.08530000
opls_525-86    H    0.29739986    0.45175003    0.30033988    0.10170000
opls_525-87    H    0.58608984    0.74516992    0.15261018    0.12110000
opls_525-88    H    0.55547045    0.82229039    0.96922003    0.09190000
opls_525-89    H    0.26936986    0.84934047    0.09325984    0.09060000
opls_910-90    H    0.66773989    0.65737989    0.10461970    0.25360000
opls_910-91    H    0.38527004    0.36341006    0.25826060    0.25360000
opls_525-92    H    0.44128021    0.27121999    0.09967996    0.10590000
opls_525-93    H    0.71697992    0.56961967    0.93003064    0.23250000
opls_525-94    H    0.41712005    0.15996977    0.92741002    0.10170000
opls_525-95    H    0.71309028    0.14597019    0.81526991    0.11710000
opls_525-96    H    0.83475952    0.25963962    0.95115016    0.09190000
opls_525-97    H    0.84104989    0.56645991    0.90335037    0.10440000
opls_910-98    H    0.00724009    0.34637970    0.04939999    0.24650000
opls_910-99    H    0.99529027    0.64407001    0.02837968    0.25370000
opls_910-100    H    0.33103961    0.99075984    0.94324065    0.25360000
opls_910-101    H    0.62039006    0.97271993    0.82769012    0.25360000
opls_525-102    H    0.17251943    0.43361960    0.65997985    0.11670000
opls_525-103    H    0.15022961    0.72748984    0.65052039    0.08520000
opls_525-104    H    0.29739986    0.45175003    0.80033988    0.10170000
opls_525-105    H    0.58608984    0.74516992    0.65261018    0.12120000
opls_525-106    H    0.55546982    0.82229039    0.46922003    0.09190000
opls_525-107    H    0.26936951    0.84933976    0.59325984    0.09060000
opls_910-108    H    0.66773989    0.65737989    0.60461970    0.25370000
opls_910-109    H    0.38527004    0.36341006    0.75826060    0.25360000
opls_525-110    H    0.44128021    0.27121999    0.59967996    0.10590000
opls_525-111    H    0.71698027    0.56962038    0.43003064    0.23250000
opls_525-112    H    0.41712005    0.15996977    0.42741002    0.10170000
opls_525-113    H    0.71309028    0.14597019    0.31526991    0.11700000
opls_525-114    H    0.83475952    0.25963962    0.45115016    0.09190000
opls_525-115    H    0.84104989    0.56645991    0.40335037    0.10430000
opls_910-116    H    0.00723946    0.34637970    0.54939999    0.24650000
opls_910-117    H    0.99528964    0.64407001    0.52837968    0.25380000
opls_910-118    H    0.33103961    0.99075984    0.44324065    0.25360000
opls_910-119    H    0.62039006    0.97271993    0.32769012    0.25360000
