#======================================================================
# Crystal Data Generated By AuToFF
#----------------------------------------------------------------------

data_AuToFF_phase_1

_cell_length_a                         28.0496
_cell_length_b                         2.6879
_cell_length_c                         30.4041
_cell_angle_alpha                      90.00
_cell_angle_beta                       81.75
_cell_angle_gamma                      90.00
_symmetry_space_group_name_H-M_alt     'P 1'
_symmetry_space_group_IT_number        1

loop_
_space_group_symop_operation_xyz
   'x, y, z'

loop_
   _atom_site_label
   _atom_site_type_symbol
   _atom_site_fract_x
   _atom_site_fract_y
   _atom_site_fract_z
   _atom_site_charge
opls_147-0    C    0.49714013    0.00000000    0.43530994    0.02870000
opls_145-1    C    0.48299007    0.00000000    0.48274006    0.00020000
opls_147-2    C    0.56466000    0.00000000    0.50382993    0.02540000
opls_145-3    C    0.57517986    0.00000000    0.45754008    -0.21340000
opls_145-4    C    0.54359009    0.00000000    0.42548984    -0.22220000
opls_145-5    C    0.46460987    0.00000000    0.40050988    0.01660000
opls_145-6    C    0.41897019    0.00000000    0.41775986    -0.14020000
opls_700-7    C    0.40102996    0.00000000    0.46310983    0.01930000
opls_145-8    C    0.47247018    0.00000000    0.34654987    0.05420000
opls_700-9    C    0.34693006    0.00000000    0.47011996    0.05710000
opls_145-10    C    0.51517991    0.00000000    0.32042997    -0.21360000
opls_145-11    C    0.51913996    0.00000000    0.27295997    -0.22140000
opls_145-12    C    0.48145014    0.00000000    0.24759981    0.19260000
opls_145-13    C    0.43886993    0.00000000    0.27051991    -0.22160000
opls_145-14    C    0.43447985    0.00000000    0.31794005    -0.14570000
opls_145-15    C    0.31893996    0.00000000    0.43169005    -0.14110000
opls_145-16    C    0.27151003    0.00000000    0.43545982    -0.22040000
opls_145-17    C    0.24782021    0.00000000    0.47718991    0.19260000
opls_145-18    C    0.27251019    0.00000000    0.51574977    -0.22190000
opls_145-19    C    0.32011006    0.00000000    0.51240008    -0.21350000
opls_142-20    C    0.82910010    0.00000000    0.48588004    0.10100000
opls_145-21    C    0.87863996    0.00000000    0.49048998    0.05290000
opls_145-22    C    0.89681008    0.00000000    0.53308981    -0.21340000
opls_145-23    C    0.94378000    0.00000000    0.53688983    -0.21340000
opls_145-24    C    0.97448000    0.00000000    0.49800993    0.05460000
opls_145-25    C    0.95524994    0.00000000    0.45524990    -0.14500000
opls_145-26    C    0.90824019    0.00000000    0.45168984    -0.21390000
opls_142-27    C    0.54253998    0.00000000    0.83046975    0.09240000
opls_145-28    C    0.52968994    0.00000000    0.87958983    0.05290000
opls_145-29    C    0.48414999    0.00000000    0.89593982    -0.21340000
opls_145-30    C    0.47255015    0.00000000    0.94253974    -0.14430000
opls_145-31    C    0.50623009    0.00000000    0.97467972    0.06040000
opls_145-32    C    0.55210022    0.00000000    0.95727986    -0.21340000
opls_145-33    C    0.56347994    0.00000000    0.91063972    -0.18970000
opls_147-34    C    0.50285987    0.00000000    0.56469006    0.02870000
opls_145-35    C    0.51700993    0.00000000    0.51725994    0.00020000
opls_147-36    C    0.43534000    0.00000000    0.49617007    0.02540000
opls_145-37    C    0.42482014    0.00000000    0.54245992    -0.21340000
opls_145-38    C    0.45640997    0.00000000    0.57450983    -0.22220000
opls_145-39    C    0.53539018    0.00000000    0.59948979    0.01660000
opls_145-40    C    0.58103022    0.00000000    0.58223981    -0.14020000
opls_700-41    C    0.59897010    0.00000000    0.53688983    0.01930000
opls_145-42    C    0.52753023    0.00000000    0.65344980    0.05420000
opls_700-43    C    0.65306994    0.00000000    0.52988004    0.05710000
opls_145-44    C    0.48482009    0.00000000    0.67957003    -0.21360000
opls_145-45    C    0.48086004    0.00000000    0.72704003    -0.22140000
opls_145-46    C    0.51854991    0.00000000    0.75239985    0.19260000
opls_145-47    C    0.56113012    0.00000000    0.72947976    -0.22160000
opls_145-48    C    0.56552015    0.00000000    0.68205995    -0.14560000
opls_145-49    C    0.68106004    0.00000000    0.56830995    -0.14110000
opls_145-50    C    0.72849002    0.00000000    0.56453984    -0.22040000
opls_145-51    C    0.75218020    0.00000000    0.52280975    0.19260000
opls_145-52    C    0.72749022    0.00000000    0.48424989    -0.22180000
opls_145-53    C    0.67988994    0.00000000    0.48759992    -0.21340000
opls_142-54    C    0.17089990    0.00000000    0.51411996    0.10100000
opls_145-55    C    0.12136004    0.00000000    0.50951002    0.05290000
opls_145-56    C    0.10318997    0.00000000    0.46690985    -0.21340000
opls_145-57    C    0.05622005    0.00000000    0.46310983    -0.21340000
opls_145-58    C    0.02552000    0.00000000    0.50199007    0.05460000
opls_145-59    C    0.04475011    0.00000000    0.54474977    -0.14500000
opls_145-60    C    0.09176022    0.00000000    0.54830983    -0.21390000
opls_142-61    C    0.45746007    0.00000000    0.16952992    0.09240000
opls_145-62    C    0.47031011    0.00000000    0.12040983    0.05290000
opls_145-63    C    0.51585006    0.00000000    0.10405985    -0.21340000
opls_145-64    C    0.52744990    0.00000000    0.05745992    -0.14420000
opls_145-65    C    0.49376996    0.00000000    0.02531995    0.06040000
opls_145-66    C    0.44790013    0.00000000    0.04272014    -0.21320000
opls_145-67    C    0.43652012    0.00000000    0.08935995    -0.18970000
opls_750-68    N    0.80097991    0.00000000    0.52159005    -0.20080000
opls_750-69    N    0.51159025    0.00000000    0.80101976    -0.26640000
opls_750-70    N    0.19902009    0.00000000    0.47840995    -0.20080000
opls_750-71    N    0.48841015    0.00000000    0.19897990    -0.26640000
opls_146-72    H    0.60760022    0.00000000    0.44261984    0.21690000
opls_146-73    H    0.55895995    0.00000000    0.39330001    0.21660000
opls_146-74    H    0.39570006    0.00000000    0.39413985    0.21650000
opls_146-75    H    0.54809000    0.00000000    0.33168978    0.21650000
opls_146-76    H    0.55246000    0.00000000    0.25532980    0.21710000
opls_146-77    H    0.40828991    0.00000000    0.25234003    0.10220000
opls_146-78    H    0.39927988    0.00000000    0.32897985    0.21700000
opls_146-79    H    0.33044016    0.00000000    0.39665004    0.09680000
opls_146-80    H    0.25268996    0.00000000    0.40515007    0.03860000
opls_146-81    H    0.25547998    0.00000000    0.54915000    0.21620000
opls_146-82    H    0.33100993    0.00000000    0.54539983    0.09300000
opls_144-83    H    0.81712018    0.00000000    0.45209995    0.03940000
opls_146-84    H    0.87449012    0.00000000    0.56361992    0.21650000
opls_146-85    H    0.95485987    0.00000000    0.57085006    0.10000000
opls_146-86    H    0.97554012    0.00000000    0.42374005    0.21650000
opls_146-87    H    0.89495021    0.00000000    0.41833980    0.03930000
opls_144-88    H    0.57823023    0.00000000    0.81991983    0.10180000
opls_146-89    H    0.45739999    0.00000000    0.87248000    0.10370000
opls_146-90    H    0.43682012    0.00000000    0.95216974    0.21590000
opls_146-91    H    0.58017024    0.00000000    0.97876988    0.08990000
opls_146-92    H    0.59896010    0.00000000    0.89877970    0.21710000
opls_146-93    H    0.39240018    0.00000000    0.55737983    0.21690000
opls_146-94    H    0.44104005    0.00000000    0.60669999    0.21660000
opls_146-95    H    0.60430000    0.00000000    0.60585982    0.21640000
opls_146-96    H    0.45191005    0.00000000    0.66830989    0.21650000
opls_146-97    H    0.44754005    0.00000000    0.74466987    0.21710000
opls_146-98    H    0.59171009    0.00000000    0.74765997    0.10220000
opls_146-99    H    0.60072017    0.00000000    0.67101982    0.21710000
opls_146-100    H    0.66956019    0.00000000    0.60334996    0.09680000
opls_146-101    H    0.74731004    0.00000000    0.59484993    0.03860000
opls_146-102    H    0.74452002    0.00000000    0.45085000    0.21610000
opls_146-103    H    0.66899013    0.00000000    0.45459984    0.09300000
opls_144-104    H    0.18288017    0.00000000    0.54790005    0.03940000
opls_146-105    H    0.12550988    0.00000000    0.43638008    0.21660000
opls_146-106    H    0.04514013    0.00000000    0.42914994    0.10000000
opls_146-107    H    0.02445988    0.00000000    0.57625995    0.21650000
opls_146-108    H    0.10505019    0.00000000    0.58165987    0.03930000
opls_144-109    H    0.42177018    0.00000000    0.18007984    0.10180000
opls_146-110    H    0.54260001    0.00000000    0.12752000    0.10380000
opls_146-111    H    0.56317993    0.00000000    0.04782993    0.21590000
opls_146-112    H    0.41983012    0.00000000    0.02123012    0.08980000
opls_146-113    H    0.40103996    0.00000000    0.10121997    0.21710000
