#======================================================================
# Crystal Data Generated By AuToFF
#----------------------------------------------------------------------

data_AuToFF_phase_1

_cell_length_a                         18.7517
_cell_length_b                         18.7517
_cell_length_c                         3.4602
_cell_angle_alpha                      90.00
_cell_angle_beta                       90.00
_cell_angle_gamma                      120.00
_symmetry_space_group_name_H-M_alt     'P 1'
_symmetry_space_group_IT_number        1

loop_
_space_group_symop_operation_xyz
   'x, y, z'

loop_
   _atom_site_label
   _atom_site_type_symbol
   _atom_site_fract_x
   _atom_site_fract_y
   _atom_site_fract_z
   _atom_site_charge
opls_531-0    C    0.37001000    0.61978023    0.50000000    0.39140000
opls_700-1    C    0.41002989    0.56859992    0.50000000    0.00020000
opls_523-2    C    0.36241974    0.48223000    0.50000000    -0.11310000
opls_145-3    C    0.40015979    0.43412985    0.50000000    -0.11070000
opls_700-4    C    0.48628972    0.47087986    0.50000000    0.12100000
opls_145-5    C    0.53406996    0.55748009    0.50000000    -0.11310000
opls_523-6    C    0.49627990    0.60559009    0.50000000    -0.11630000
opls_142-7    C    0.52241989    0.41612986    0.50000000    -0.16110000
opls_142-8    C    0.60342999    0.44219971    0.50000000    -0.19350000
opls_642-9    C    0.63569014    0.38499026    0.50000000    0.37350000
opls_531-10    C    0.38022006    0.75022984    0.50000000    0.39140000
opls_700-11    C    0.43139989    0.84142997    0.50000000    0.00020000
opls_523-12    C    0.51777004    0.88018991    0.50000000    -0.11310000
opls_145-13    C    0.56586971    0.96602964    0.50000000    -0.11070000
opls_700-14    C    0.52912013    0.01541000    0.50000000    0.12100000
opls_145-15    C    0.44251981    0.97658972    0.50000000    -0.11310000
opls_523-16    C    0.39440971    0.89068965    0.50000000    -0.11630000
opls_142-17    C    0.58387018    0.10628993    0.50000000    -0.16110000
opls_142-18    C    0.55780011    0.16123021    0.50000000    -0.19350000
opls_642-19    C    0.61501013    0.25069999    0.50000000    0.37350000
opls_531-20    C    0.24976995    0.62998993    0.50000000    0.39140000
opls_700-21    C    0.15857022    0.58997010    0.50000000    0.00020000
opls_523-22    C    0.11981022    0.63758009    0.50000000    -0.11310000
opls_145-23    C    0.03397019    0.59983990    0.50000000    -0.11070000
opls_700-24    C    0.98459015    0.51371013    0.50000000    0.12110000
opls_145-25    C    0.02341023    0.46593019    0.50000000    -0.11310000
opls_523-26    C    0.10931039    0.50372026    0.50000000    -0.11630000
opls_142-27    C    0.89370993    0.47758021    0.50000000    -0.16110000
opls_142-28    C    0.83876990    0.39657008    0.50000000    -0.19350000
opls_642-29    C    0.74929972    0.36430975    0.50000000    0.37350000
opls_641-30    N    0.71810001    0.41571974    0.50000000    -0.39600000
opls_520-31    N    0.41626993    0.70306999    0.50000000    -0.41120000
opls_641-32    N    0.58427965    0.30237970    0.50000000    -0.39610000
opls_520-33    N    0.29693003    0.71319965    0.50000000    -0.41130000
opls_641-34    N    0.69762003    0.28189994    0.50000000    -0.39610000
opls_520-35    N    0.28679973    0.58372974    0.50000000    -0.41130000
opls_526-36    H    0.29583011    0.45187984    0.50000000    0.12780000
opls_146-37    H    0.36175011    0.36772982    0.50000000    0.12790000
opls_146-38    H    0.60042985    0.58906983    0.50000000    0.11530000
opls_526-39    H    0.53460011    0.67199998    0.50000000    0.12790000
opls_144-40    H    0.47963015    0.35035977    0.50000000    0.12870000
opls_144-41    H    0.64878993    0.50678009    0.50000000    0.10140000
opls_526-42    H    0.54811971    0.84394976    0.50000000    0.12780000
opls_146-43    H    0.63226980    0.99402012    0.50000000    0.12790000
opls_146-44    H    0.41093019    0.01135999    0.50000000    0.11530000
opls_526-45    H    0.32800005    0.86260003    0.50000000    0.12790000
opls_144-46    H    0.64963998    0.12926977    0.50000000    0.12870000
opls_144-47    H    0.49321992    0.14200974    0.50000000    0.10140000
opls_526-48    H    0.15604987    0.70416978    0.50000000    0.12780000
opls_146-49    H    0.00598009    0.63825006    0.50000000    0.12790000
opls_146-50    H    0.98863997    0.39957018    0.50000000    0.11530000
opls_526-51    H    0.13739984    0.46540000    0.50000000    0.12790000
opls_144-52    H    0.87073010    0.52036984    0.50000000    0.12870000
opls_144-53    H    0.85799015    0.35121017    0.50000000    0.10140000
