#======================================================================
# Crystal Data Generated By AuToFF
#----------------------------------------------------------------------

data_AuToFF_phase_1

_cell_length_a                         29.9509
_cell_length_b                         29.9929
_cell_length_c                         3.7393
_cell_angle_alpha                      89.76
_cell_angle_beta                       90.07
_cell_angle_gamma                      59.93
_symmetry_space_group_name_H-M_alt     'P 1'
_symmetry_space_group_IT_number        1

loop_
_space_group_symop_operation_xyz
   'x, y, z'

loop_
   _atom_site_label
   _atom_site_type_symbol
   _atom_site_fract_x
   _atom_site_fract_y
   _atom_site_fract_z
   _atom_site_charge
opls_145-0    C    0.02336986    0.03011983    0.99997058    -0.16740000
opls_700-1    C    0.96922008    0.05424999    0.00004012    0.05700000
opls_145-2    C    0.94593978    0.02379002    0.99998930    -0.17550000
opls_700-3    C    0.97598971    0.96969994    0.99991977    0.05710000
opls_145-4    C    0.02982005    0.94640995    0.00001872    -0.16740000
opls_700-5    C    0.05392989    0.97635990    0.99995988    0.06060000
opls_142-6    C    0.10981990    0.95398020    0.00021127    0.07010000
opls_142-7    C    0.93562991    0.11009996    0.99974059    0.07030000
opls_142-8    C    0.95368972    0.93620015    0.00027011    0.06980000
opls_145-9    C    0.91717995    0.19581010    0.99985024    0.20760000
opls_700-10    C    0.93838976    0.22870014    0.00025941    0.08960000
opls_145-11    C    0.86305002    0.21869988    0.00012035    -0.16970000
opls_145-12    C    0.90522000    0.28192004    0.00012035    -0.17020000
opls_145-13    C    0.83100004    0.27155993    0.99997058    -0.11790000
opls_700-14    C    0.85114000    0.30512000    0.99986896    0.06220000
opls_145-15    C    0.19565985    0.88660024    0.00009093    0.20950000
opls_700-16    C    0.22877992    0.83247992    0.99978070    0.08960000
opls_145-17    C    0.21834972    0.91792998    0.99990907    -0.17000000
opls_145-18    C    0.28205005    0.81248985    0.99989838    -0.17030000
opls_145-19    C    0.27122988    0.89717013    0.00001070    -0.11970000
opls_700-20    C    0.30502990    0.84346012    0.00020058    0.06210000
opls_145-21    C    0.88643997    0.91772020    0.00013907    0.20560000
opls_700-22    C    0.83225988    0.93867984    0.99978070    0.08950000
opls_145-23    C    0.91795997    0.86368997    0.99991977    -0.16680000
opls_145-24    C    0.81242964    0.90536019    0.99986896    -0.17700000
opls_145-25    C    0.89739990    0.83149995    0.00001872    -0.11940000
opls_700-26    C    0.84365984    0.85138000    0.00017116    0.06210000
opls_700-27    C    0.81706966    0.36167009    0.99995988    0.06220000
opls_145-28    C    0.83712988    0.39532987    0.99995988    -0.11810000
opls_145-29    C    0.76303002    0.38473987    0.00013907    -0.16950000
opls_145-30    C    0.80495999    0.44819011    0.00005884    -0.16620000
opls_700-31    C    0.72974994    0.43790023    0.00024871    0.08890000
opls_145-32    C    0.75078005    0.47090994    0.99989035    0.20560000
opls_700-33    C    0.36158987    0.82108980    0.99981012    0.06210000
opls_145-34    C    0.38432981    0.85225006    0.00005884    -0.16300000
opls_145-35    C    0.44844012    0.74682993    0.00008023    -0.16620000
opls_700-36    C    0.43751992    0.83249997    0.00024069    0.08820000
opls_145-37    C    0.47084983    0.77845980    0.99990907    0.20760000
opls_700-38    C    0.82149996    0.81709980    0.99982884    0.06210000
opls_145-39    C    0.76774991    0.83685004    0.99994919    -0.11760000
opls_145-40    C    0.85283973    0.76315009    0.00008023    -0.17320000
opls_145-41    C    0.74729977    0.80451017    0.00002942    -0.17030000
opls_700-42    C    0.83314993    0.72973023    0.00021930    0.08950000
opls_145-43    C    0.77902987    0.75045983    0.99989035    0.19190000
opls_145-44    C    0.64378011    0.63622978    0.99998930    -0.16740000
opls_700-45    C    0.61282000    0.68993999    0.00002942    0.05710000
opls_145-46    C    0.63648000    0.72032993    0.99997058    -0.17070000
opls_142-47    C    0.55699985    0.71173012    0.99989035    0.07010000
opls_700-48    C    0.69027986    0.69746993    0.00005081    0.05720000
opls_142-49    C    0.71218971    0.73132010    0.99997058    0.07040000
opls_145-50    C    0.72073006    0.64340989    0.99998930    -0.16940000
opls_700-51    C    0.69789993    0.61254990    0.00005884    0.06060000
opls_142-52    C    0.73184985    0.55678000    0.99997861    0.07010000
opls_148-53    C    0.67237999    0.45949984    0.99985826    -0.42110000
opls_148-54    C    0.99575983    0.20683992    0.99989838    -0.42670000
opls_148-55    C    0.79643988    0.99594018    0.00013104    -0.42890000
opls_148-56    C    0.86910985    0.67245987    0.99987965    -0.42120000
opls_148-57    C    0.20722999    0.79681020    0.00016046    -0.42670000
opls_148-58    C    0.45883973    0.86839006    0.99986896    -0.43500000
opls_145-59    C    0.39554983    0.76735979    0.99994919    -0.11640000
opls_144-60    H    0.12202999    0.98315013    0.00182925    0.06810000
opls_144-61    H    0.89416012    0.12231974    0.99761984    0.06170000
opls_144-62    H    0.98296988    0.89479004    0.00216889    0.06120000
opls_146-63    H    0.92293995    0.30602004    0.00223040    0.10610000
opls_146-64    H    0.78947998    0.28684997    0.00028883    0.10770000
opls_146-65    H    0.30633967    0.77066005    0.99765995    0.10620000
opls_146-66    H    0.28633983    0.92348030    0.99949990    0.10760000
opls_146-67    H    0.77055990    0.92283990    0.99767867    0.10610000
opls_146-68    H    0.92388006    0.79007993    0.99940095    0.10850000
opls_146-69    H    0.87865988    0.38008001    0.99997861    0.10650000
opls_146-70    H    0.74540980    0.36055021    0.00217959    0.10610000
opls_146-71    H    0.38052988    0.74098002    0.00029953    0.10850000
opls_146-72    H    0.35988978    0.89405011    0.00192018    0.10570000
opls_146-73    H    0.74123974    0.87826990    0.00028883    0.10770000
opls_146-74    H    0.89468979    0.74573019    0.00216087    0.10540000
opls_144-75    H    0.54528978    0.68216011    0.99893026    0.06210000
opls_144-76    H    0.68264984    0.77265016    0.99987965    0.05950000
opls_144-77    H    0.77325977    0.54481996    0.00012035    0.06610000
opls_702-78    H    0.65309986    0.49385995    0.16840855    0.12520000
opls_702-79    H    0.65636981    0.47172015    0.72924979    0.12250000
opls_702-80    H    0.66280974    0.43054002    0.09321948    0.12000000
opls_702-81    H    0.01509997    0.17206002    0.16700987    0.12470000
opls_702-82    H    0.01141997    0.19523004    0.72893957    0.12120000
opls_702-83    H    0.00567993    0.23540994    0.09480001    0.12320000
opls_702-84    H    0.79263001    0.01159002    0.27073951    0.12250000
opls_702-85    H    0.81149994    0.01543024    0.83197120    0.12470000
opls_702-86    H    0.75779976    0.00572027    0.90629914    0.12210000
opls_702-87    H    0.85433996    0.65292986    0.17025920    0.12530000
opls_702-88    H    0.87262977    0.65674991    0.72976059    0.12250000
opls_702-89    H    0.90781977    0.66283992    0.09101850    0.12210000
opls_702-90    H    0.19519982    0.79285992    0.27034905    0.12100000
opls_702-91    H    0.17276982    0.81188030    0.83009916    0.12520000
opls_702-92    H    0.23625998    0.75826998    0.90841989    0.12170000
opls_702-93    H    0.49311988    0.85353016    0.17155893    0.12480000
opls_702-94    H    0.47116988    0.87206999    0.72999861    0.12250000
opls_702-95    H    0.42959977    0.90696013    0.08948075    0.12280000
opls_146-96    H    0.95981975    0.84614996    0.99901049    0.10580000
opls_146-97    H    0.70545977    0.82197003    0.00045999    0.10650000
opls_146-98    H    0.82259980    0.47234012    0.00035034    0.10620000
opls_146-99    H    0.84525991    0.19468003    0.00085044    0.10580000
opls_146-100    H    0.19411000    0.95973990    0.99910944    0.10620000
opls_146-101    H    0.47285997    0.70502024    0.00059905    0.10660000
opls_146-102    H    0.05371989    0.90449001    0.00013104    0.10740000
opls_146-103    H    0.90394974    0.04189007    0.00012837    0.10510000
opls_146-104    H    0.04141982    0.05397003    0.99986896    0.10720000
opls_146-105    H    0.62615001    0.61198992    0.99978070    0.10800000
opls_146-106    H    0.61218987    0.76221986    0.99979942    0.10770000
opls_146-107    H    0.76267993    0.62570987    0.99971919    0.10810000
opls_750-108    N    0.14227974    0.90522996    0.99986896    -0.29140000
opls_750-109    N    0.95191990    0.14248990    0.00014976    -0.28820000
opls_750-110    N    0.90489977    0.95250987    0.99985024    -0.29260000
opls_750-111    N    0.52410981    0.76034023    0.00008023    -0.29020000
opls_750-112    N    0.76088979    0.71541022    0.00002942    -0.29110000
opls_750-113    N    0.71584997    0.52416006    0.00001872    -0.28930000
