#======================================================================
# Crystal Data Generated By AuToFF
#----------------------------------------------------------------------

data_AuToFF_phase_1

_cell_length_a                         22.7117
_cell_length_b                         22.7117
_cell_length_c                         3.4960
_cell_angle_alpha                      90.00
_cell_angle_beta                       90.00
_cell_angle_gamma                      120.00
_symmetry_space_group_name_H-M_alt     'P 1'
_symmetry_space_group_IT_number        1

loop_
_space_group_symop_operation_xyz
   'x, y, z'

loop_
   _atom_site_label
   _atom_site_type_symbol
   _atom_site_fract_x
   _atom_site_fract_y
   _atom_site_fract_z
   _atom_site_charge
opls_700-0    C    0.64474999    0.38108009    0.50000000    0.07070000
opls_145-1    C    0.59720989    0.31137008    0.50000000    -0.08380000
opls_142-2    C    0.62315995    0.43195022    0.50000000    0.09790000
opls_145-3    C    0.53134994    0.45901984    0.50000000    0.21210000
opls_145-4    C    0.57166003    0.53101011    0.50000000    -0.10510000
opls_145-5    C    0.53990000    0.57124009    0.50000000    -0.09710000
opls_700-6    C    0.35525001    0.61891991    0.50000000    0.07070000
opls_145-7    C    0.40279011    0.68862992    0.50000000    -0.08380000
opls_142-8    C    0.37684005    0.56804978    0.50000000    0.09790000
opls_145-9    C    0.46865006    0.54098016    0.50000000    0.21210000
opls_700-10    C    0.42833997    0.46898989    0.50000000    0.01880000
opls_700-11    C    0.46010000    0.42875991    0.50000000    0.04670000
opls_145-12    C    0.41966010    0.35752007    0.50000000    -0.07680000
opls_145-13    C    0.34895988    0.32587012    0.50000000    -0.09400000
opls_145-14    C    0.31756015    0.36507005    0.50000000    -0.09510000
opls_145-15    C    0.35695009    0.43578978    0.50000000    -0.07680000
opls_700-16    C    0.61892003    0.26366992    0.50000000    0.07070000
opls_145-17    C    0.68862989    0.28583994    0.50000000    -0.08380000
opls_142-18    C    0.56804998    0.19120988    0.50000000    0.09790000
opls_145-19    C    0.54098008    0.07232989    0.50000000    0.21210000
opls_145-20    C    0.46898975    0.04064994    0.50000000    -0.10510000
opls_145-21    C    0.42876006    0.96866019    0.50000000    -0.09710000
opls_700-22    C    0.38107997    0.73633008    0.50000000    0.07070000
opls_145-23    C    0.31137011    0.71416006    0.50000000    -0.08380000
opls_142-24    C    0.43195002    0.80879012    0.50000000    0.09790000
opls_145-25    C    0.45901992    0.92767011    0.50000000    0.21210000
opls_700-26    C    0.53101025    0.95935006    0.50000000    0.01880000
opls_700-27    C    0.57123994    0.03133981    0.50000000    0.04670000
opls_145-28    C    0.64248008    0.06214020    0.50000000    -0.07680000
opls_145-29    C    0.67413005    0.02309025    0.50000000    -0.09400000
opls_145-30    C    0.63493017    0.95249000    0.50000000    -0.09500000
opls_145-31    C    0.56420977    0.92115984    0.50000000    -0.07680000
opls_700-32    C    0.73632998    0.35524999    0.50000000    0.07070000
opls_145-33    C    0.71415978    0.40278999    0.50000000    -0.08380000
opls_142-34    C    0.80879007    0.37683990    0.50000000    0.09800000
opls_145-35    C    0.92766972    0.46864976    0.50000000    0.21220000
opls_145-36    C    0.95934977    0.42833995    0.50000000    -0.10510000
opls_145-37    C    0.03134020    0.46010023    0.50000000    -0.09710000
opls_700-38    C    0.26367002    0.64475001    0.50000000    0.07070000
opls_145-39    C    0.28584022    0.59721001    0.50000000    -0.08380000
opls_142-40    C    0.19120993    0.62316010    0.50000000    0.09790000
opls_145-41    C    0.07233002    0.53134973    0.50000000    0.21240000
opls_700-42    C    0.04065023    0.57166005    0.50000000    0.01880000
opls_700-43    C    0.96865980    0.53989977    0.50000000    0.04670000
opls_145-44    C    0.93785982    0.58033973    0.50000000    -0.07680000
opls_145-45    C    0.97690988    0.65104014    0.50000000    -0.09400000
opls_145-46    C    0.04751013    0.68243995    0.50000000    -0.09510000
opls_145-47    C    0.07883989    0.64304987    0.50000000    -0.07670000
opls_750-48    N    0.55938008    0.41422021    0.50000000    -0.28110000
opls_750-49    N    0.44061992    0.58577979    0.50000000    -0.28100000
opls_750-50    N    0.58577983    0.14516005    0.50000000    -0.28110000
opls_750-51    N    0.41422017    0.85483995    0.50000000    -0.28100000
opls_750-52    N    0.85484009    0.44061974    0.50000000    -0.28110000
opls_750-53    N    0.14516010    0.55937975    0.50000000    -0.28100000
opls_146-54    H    0.54050987    0.29343009    0.50000000    0.04880000
opls_144-55    H    0.66308012    0.48828990    0.50000000    0.02880000
opls_146-56    H    0.45949013    0.70656991    0.50000000    0.04880000
opls_144-57    H    0.33691988    0.51171010    0.50000000    0.02880000
opls_146-58    H    0.44555999    0.32554981    0.50000000    0.04820000
opls_146-59    H    0.31699979    0.26801994    0.50000000    0.04880000
opls_146-60    H    0.25970999    0.33934011    0.50000000    0.04880000
opls_146-61    H    0.33133994    0.46801017    0.50000000    0.04880000
opls_146-62    H    0.37092990    0.94314987    0.50000000    0.04880000
opls_146-63    H    0.44354000    0.07302997    0.50000000    0.04880000
opls_146-64    H    0.70656978    0.24707978    0.50000000    0.04880000
opls_144-65    H    0.51170981    0.17479006    0.50000000    0.02890000
opls_146-66    H    0.29343022    0.75292022    0.50000000    0.04880000
opls_144-67    H    0.48829019    0.82520994    0.50000000    0.02880000
opls_146-68    H    0.67445008    0.12001021    0.50000000    0.04820000
opls_146-69    H    0.73197989    0.04897984    0.50000000    0.04880000
opls_146-70    H    0.66065997    0.92036976    0.50000000    0.04880000
opls_146-71    H    0.53198994    0.86333000    0.50000000    0.04880000
opls_146-72    H    0.05684988    0.42778985    0.50000000    0.04880000
opls_146-73    H    0.92697010    0.37051977    0.50000000    0.04880000
opls_146-74    H    0.75291990    0.45949013    0.50000000    0.04880000
opls_144-75    H    0.82521007    0.33692004    0.50000000    0.02880000
opls_146-76    H    0.24708010    0.54050987    0.50000000    0.04880000
opls_144-77    H    0.17478993    0.66307996    0.50000000    0.02880000
opls_146-78    H    0.87998993    0.55443998    0.50000000    0.04830000
opls_146-79    H    0.95102006    0.68299972    0.50000000    0.04880000
opls_146-80    H    0.07963005    0.74029013    0.50000000    0.04880000
opls_146-81    H    0.13667012    0.66865983    0.50000000    0.04880000
opls_146-82    H    0.57221009    0.62906994    0.50000000    0.04880000
opls_146-83    H    0.62947975    0.55645992    0.50000000    0.04880000
