#======================================================================
# Crystal Data Generated By AuToFF
#----------------------------------------------------------------------

data_AuToFF_phase_1

_cell_length_a                         25.6879
_cell_length_b                         25.6240
_cell_length_c                         10.0610
_cell_angle_alpha                      90.00
_cell_angle_beta                       90.00
_cell_angle_gamma                      120.00
_symmetry_space_group_name_H-M_alt     'P 1'
_symmetry_space_group_IT_number        1

loop_
_space_group_symop_operation_xyz
   'x, y, z'

loop_
   _atom_site_label
   _atom_site_type_symbol
   _atom_site_fract_x
   _atom_site_fract_y
   _atom_site_fract_z
   _atom_site_charge
opls_145-0    C    0.25004991    0.98816008    0.20547957    -0.10000000
opls_700-1    C    0.28027020    0.95569020    0.20144021    0.04110000
opls_700-2    C    0.34411000    0.98687037    0.19960044    -0.02300000
opls_700-3    C    0.24367016    0.88925030    0.20456018    0.09040000
opls_145-4    C    0.25574020    0.85608014    0.29805984    -0.08850000
opls_145-5    C    0.22267017    0.79326016    0.29751019    -0.08860000
opls_700-6    C    0.17684017    0.76288032    0.20391015    0.07260000
opls_145-7    C    0.16374019    0.79579001    0.11249975    -0.08870000
opls_145-8    C    0.19691994    0.85874022    0.11290031    -0.07090000
opls_700-9    C    0.37629003    0.95240014    0.19502038    0.08890000
opls_145-10    C    0.36520016    0.91131011    0.09193023    -0.08850000
opls_145-11    C    0.39609017    0.87941028    0.08708975    -0.10550000
opls_145-12    C    0.43876024    0.88874018    0.18419044    0.24060000
opls_145-13    C    0.44966015    0.92967023    0.28773979    -0.10560000
opls_145-14    C    0.41837005    0.96098018    0.29344996    -0.08700000
opls_142-15    C    0.14272017    0.69695999    0.19919988    0.10340000
opls_145-16    C    0.72493011    0.72597036    0.28836000    -0.10000000
opls_145-17    C    0.69341028    0.75665032    0.28013021    -0.07220000
opls_700-18    C    0.63193010    0.72641018    0.25242024    0.03690000
opls_700-19    C    0.60099012    0.66302015    0.23246993    -0.02190000
opls_700-20    C    0.63374987    0.63162999    0.23828049    -0.01700000
opls_700-21    C    0.69644003    0.66384030    0.26803002    0.03520000
opls_700-22    C    0.73364980    0.63492997    0.28678958    0.08060000
opls_700-23    C    0.60186017    0.76277036    0.24934003    0.08880000
opls_145-24    C    0.77481999    0.65253032    0.39249975    -0.07290000
opls_145-25    C    0.81035993    0.62576996    0.41014015    -0.08850000
opls_700-26    C    0.80524014    0.58127991    0.32196998    0.07350000
opls_145-27    C    0.76544994    0.56478000    0.21474009    -0.08820000
opls_145-28    C    0.73055993    0.59182021    0.19712951    -0.10390000
opls_145-29    C    0.61718995    0.80834013    0.34407017    -0.08860000
opls_145-30    C    0.58814001    0.84196002    0.34541000    -0.10380000
opls_700-31    C    0.54360016    0.83057028    0.25187953    0.08410000
opls_145-32    C    0.52887002    0.78605995    0.15503032    -0.08860000
opls_145-33    C    0.55812011    0.75256038    0.15341020    -0.08850000
opls_700-34    C    0.60093010    0.56519999    0.22512971    0.08440000
opls_700-35    C    0.53431011    0.62877027    0.21756982    0.08050000
opls_145-36    C    0.55840001    0.52952026    0.32085976    -0.08710000
opls_145-37    C    0.52520997    0.46708017    0.30574993    -0.12750000
opls_145-38    C    0.53440001    0.43961006    0.19459000    0.24530000
opls_145-39    C    0.57604003    0.47529024    0.09810953    -0.10330000
opls_145-40    C    0.60831999    0.53781010    0.11199980    -0.08710000
opls_145-41    C    0.50710008    0.59043992    0.10866017    -0.07100000
opls_145-42    C    0.44444015    0.55532033    0.10027035    -0.12740000
opls_145-43    C    0.40818012    0.55766001    0.20092039    0.24140000
opls_145-44    C    0.43520020    0.59655005    0.30897028    -0.12740000
opls_145-45    C    0.49775008    0.63168001    0.31727959    -0.07090000
opls_142-46    C    0.84069013    0.55158008    0.34279992    0.10340000
opls_142-47    C    0.51240014    0.86490037    0.25948017    0.10660000
opls_145-48    C    0.01829018    0.30998020    0.30752013    -0.08700000
opls_700-49    C    0.05238985    0.37272988    0.29692973    0.03700000
opls_700-50    C    0.02282025    0.40702031    0.29381970    -0.01960000
opls_700-51    C    0.11869019    0.40112018    0.28918000    0.08140000
opls_145-52    C    0.14999011    0.38920005    0.38746049    -0.07090000
opls_145-53    C    0.21286012    0.41954024    0.38704006    -0.08850000
opls_700-54    C    0.24515996    0.46153018    0.28755988    0.07140000
opls_145-55    C    0.21406985    0.47248010    0.18710963    -0.07090000
opls_145-56    C    0.15121016    0.44246031    0.18801014    -0.07100000
opls_700-57    C    0.05827006    0.47382028    0.28664049    0.08060000
opls_145-58    C    0.10132995    0.50667995    0.38421032    -0.08850000
opls_145-59    C    0.13292008    0.56959006    0.38088957    -0.10550000
opls_145-60    C    0.12142012    0.60040025    0.28107047    0.24140000
opls_145-61    C    0.07867007    0.56760998    0.18263990    -0.12740000
opls_145-62    C    0.04755996    0.50474989    0.18514959    -0.08850000
opls_142-63    C    0.31103021    0.49575031    0.29498956    0.01670000
opls_145-64    C    0.28164999    0.05058981    0.21041050    -0.07240000
opls_700-65    C    0.37680994    0.05114003    0.20348971    -0.02090000
opls_700-66    C    0.34444994    0.08264015    0.21030017    0.04140000
opls_700-67    C    0.37400992    0.14882996    0.21882020    0.08570000
opls_145-68    C    0.35573002    0.17524018    0.31665043    -0.08860000
opls_145-69    C    0.38396983    0.23776995    0.32809959    -0.08730000
opls_700-70    C    0.43046016    0.27444017    0.24143028    0.07390000
opls_145-71    C    0.44823017    0.24833998    0.14183978    -0.08850000
opls_145-72    C    0.41996997    0.18577011    0.13032999    -0.08850000
opls_700-73    C    0.44389993    0.08438004    0.20439022    0.08280000
opls_145-74    C    0.47586995    0.12384013    0.30868005    -0.07100000
opls_145-75    C    0.53855997    0.15137017    0.31462976    -0.12720000
opls_145-76    C    0.57021000    0.13925987    0.21704006    0.24680000
opls_145-77    C    0.53844022    0.10060011    0.11216976    -0.10560000
opls_145-78    C    0.47588006    0.07355990    0.10552033    -0.07090000
opls_142-79    C    0.46071982    0.33969987    0.25890965    0.10660000
opls_145-80    C    0.95577978    0.28059986    0.31402048    -0.08730000
opls_700-81    C    0.95890000    0.37691986    0.30061028    -0.02070000
opls_700-82    C    0.92547998    0.31314995    0.31125037    0.03870000
opls_700-83    C    0.85896016    0.27973014    0.32009045    0.07990000
opls_145-84    C    0.82952010    0.29549011    0.41591989    -0.07100000
opls_145-85    C    0.76687980    0.26833996    0.41576980    -0.08860000
opls_700-86    C    0.73279982    0.22515990    0.31983998    0.06610000
opls_145-87    C    0.76189000    0.20807011    0.22599046    -0.07100000
opls_145-88    C    0.82463994    0.23518016    0.22624988    -0.07100000
opls_700-89    C    0.92693020    0.41160009    0.29309015    0.08620000
opls_145-90    C    0.93751011    0.45604012    0.38768015    -0.07090000
opls_145-91    C    0.90758992    0.48885022    0.37866017    -0.12740000
opls_145-92    C    0.86650002    0.47715000    0.27524004    0.24200000
opls_145-93    C    0.85579001    0.43263021    0.18164994    -0.10540000
opls_145-94    C    0.88596002    0.40019999    0.19001988    -0.08710000
opls_142-95    C    0.66732997    0.19996999    0.31779048    0.01520000
opls_145-96    C    0.25004991    0.98816008    0.70547957    -0.10000000
opls_700-97    C    0.28027020    0.95569020    0.70144021    0.04110000
opls_700-98    C    0.34411000    0.98687037    0.69960044    -0.02300000
opls_700-99    C    0.24367016    0.88925030    0.70456018    0.09040000
opls_145-100    C    0.25574020    0.85608014    0.79805984    -0.08850000
opls_145-101    C    0.22267017    0.79326016    0.79750025    -0.08860000
opls_700-102    C    0.17684017    0.76288032    0.70390021    0.07260000
opls_145-103    C    0.16374019    0.79579001    0.61248981    -0.08860000
opls_145-104    C    0.19691994    0.85874022    0.61290031    -0.07090000
opls_700-105    C    0.37629003    0.95240014    0.69502038    0.08890000
opls_145-106    C    0.36520016    0.91131011    0.59193023    -0.08850000
opls_145-107    C    0.39609017    0.87941028    0.58708975    -0.10550000
opls_145-108    C    0.43876024    0.88874018    0.68419044    0.24060000
opls_145-109    C    0.44966015    0.92967023    0.78773979    -0.10560000
opls_145-110    C    0.41837005    0.96098018    0.79344996    -0.08700000
opls_142-111    C    0.14272017    0.69695999    0.69919988    0.10330000
opls_145-112    C    0.72493011    0.72597036    0.78836000    -0.10000000
opls_145-113    C    0.69341028    0.75665032    0.78012027    -0.07220000
opls_700-114    C    0.63193010    0.72641018    0.75241030    0.03690000
opls_700-115    C    0.60099012    0.66302015    0.73245999    -0.02190000
opls_700-116    C    0.63374987    0.63162999    0.73826956    -0.01700000
opls_700-117    C    0.69644003    0.66384030    0.76803002    0.03520000
opls_700-118    C    0.73364980    0.63492997    0.78678958    0.08060000
opls_700-119    C    0.60186017    0.76277036    0.74933009    0.08890000
opls_145-120    C    0.77481999    0.65253032    0.89249975    -0.07290000
opls_145-121    C    0.81035993    0.62576996    0.91014015    -0.08850000
opls_700-122    C    0.80524014    0.58127991    0.82196004    0.07350000
opls_145-123    C    0.76544994    0.56478000    0.71474009    -0.08820000
opls_145-124    C    0.73055993    0.59182021    0.69712951    -0.10380000
opls_145-125    C    0.61718995    0.80834013    0.84407017    -0.08870000
opls_145-126    C    0.58814001    0.84196002    0.84541000    -0.10380000
opls_700-127    C    0.54360016    0.83057028    0.75187953    0.08410000
opls_145-128    C    0.52887002    0.78605995    0.65503032    -0.08860000
opls_145-129    C    0.55812011    0.75256038    0.65341020    -0.08860000
opls_700-130    C    0.60093010    0.56519999    0.72512971    0.08440000
opls_700-131    C    0.53431011    0.62877027    0.71756982    0.08050000
opls_145-132    C    0.55840001    0.52952026    0.82084982    -0.08710000
opls_145-133    C    0.52520997    0.46708017    0.80574993    -0.12740000
opls_145-134    C    0.53440001    0.43961006    0.69458006    0.24520000
opls_145-135    C    0.57604003    0.47529024    0.59810953    -0.10330000
opls_145-136    C    0.60831999    0.53781010    0.61198986    -0.08710000
opls_145-137    C    0.50710008    0.59043992    0.60865023    -0.07100000
opls_145-138    C    0.44444015    0.55532033    0.60027035    -0.12740000
opls_145-139    C    0.40818012    0.55766001    0.70092039    0.24140000
opls_145-140    C    0.43520020    0.59655005    0.80897028    -0.12740000
opls_145-141    C    0.49775008    0.63168001    0.81727959    -0.07090000
opls_142-142    C    0.84069013    0.55158008    0.84279992    0.10340000
opls_142-143    C    0.51240014    0.86490037    0.75948017    0.10660000
opls_145-144    C    0.01829018    0.30998020    0.80752013    -0.08700000
opls_700-145    C    0.05238985    0.37272988    0.79692973    0.03700000
opls_700-146    C    0.02282025    0.40702031    0.79381970    -0.01960000
opls_700-147    C    0.11869019    0.40112018    0.78917006    0.08140000
opls_145-148    C    0.14999011    0.38920005    0.88746049    -0.07090000
opls_145-149    C    0.21286012    0.41954024    0.88704006    -0.08850000
opls_700-150    C    0.24515996    0.46153018    0.78755988    0.07140000
opls_145-151    C    0.21406985    0.47248010    0.68710963    -0.07090000
opls_145-152    C    0.15121016    0.44246031    0.68801014    -0.07100000
opls_700-153    C    0.05827006    0.47382028    0.78664049    0.08060000
opls_145-154    C    0.10132995    0.50667995    0.88421032    -0.08860000
opls_145-155    C    0.13292008    0.56959006    0.88088957    -0.10550000
opls_145-156    C    0.12142012    0.60040025    0.78107047    0.24130000
opls_145-157    C    0.07867007    0.56760998    0.68263990    -0.12750000
opls_145-158    C    0.04755996    0.50474989    0.68513965    -0.08850000
opls_142-159    C    0.31103021    0.49575031    0.79498956    0.01670000
opls_145-160    C    0.28164999    0.05058981    0.71041050    -0.07240000
opls_700-161    C    0.37680994    0.05114003    0.70347977    -0.02090000
opls_700-162    C    0.34444994    0.08264015    0.71029023    0.04140000
opls_700-163    C    0.37400992    0.14882996    0.71881026    0.08690000
opls_145-164    C    0.35573002    0.17524018    0.81665043    -0.08860000
opls_145-165    C    0.38396983    0.23776995    0.82809959    -0.08740000
opls_700-166    C    0.43046016    0.27444017    0.74142034    0.07390000
opls_145-167    C    0.44823017    0.24833998    0.64183978    -0.08850000
opls_145-168    C    0.41996997    0.18577011    0.63032999    -0.08850000
opls_700-169    C    0.44389993    0.08438004    0.70439022    0.08280000
opls_145-170    C    0.47586995    0.12384013    0.80868005    -0.07100000
opls_145-171    C    0.53855997    0.15137017    0.81462976    -0.12720000
opls_145-172    C    0.57021000    0.13925987    0.71703012    0.24680000
opls_145-173    C    0.53844022    0.10060011    0.61216976    -0.10570000
opls_145-174    C    0.47588006    0.07355990    0.60552033    -0.07090000
opls_142-175    C    0.46071982    0.33969987    0.75890965    0.01720000
opls_145-176    C    0.95577978    0.28059986    0.81402048    -0.08730000
opls_700-177    C    0.95890000    0.37691986    0.80061028    -0.02070000
opls_700-178    C    0.92547998    0.31314995    0.81125037    0.03870000
opls_700-179    C    0.85896016    0.27973014    0.82009045    0.07990000
opls_145-180    C    0.82952010    0.29549011    0.91591989    -0.07100000
opls_145-181    C    0.76687980    0.26833996    0.91576980    -0.08860000
opls_700-182    C    0.73279982    0.22515990    0.81983998    0.06610000
opls_145-183    C    0.76189000    0.20807011    0.72597952    -0.07100000
opls_145-184    C    0.82463994    0.23518016    0.72623994    -0.07100000
opls_700-185    C    0.92693020    0.41160009    0.79309015    0.08620000
opls_145-186    C    0.93751011    0.45604012    0.88768015    -0.07090000
opls_145-187    C    0.90758992    0.48885022    0.87866017    -0.12750000
opls_145-188    C    0.86650002    0.47715000    0.77523010    0.24190000
opls_145-189    C    0.85579001    0.43263021    0.68164000    -0.10540000
opls_145-190    C    0.88596002    0.40019999    0.69001988    -0.08710000
opls_142-191    C    0.66732997    0.19996999    0.81777954    0.01520000
opls_750-192    N    0.47028012    0.85608014    0.17636020    -0.22890000
opls_750-193    N    0.15338013    0.66484025    0.28243018    -0.26910000
opls_750-194    N    0.34416011    0.52119032    0.19134977    -0.26910000
opls_750-195    N    0.50266991    0.37568017    0.17834013    -0.22890000
opls_750-196    N    0.83459993    0.50927019    0.26276016    -0.22890000
opls_750-197    N    0.63417021    0.16468005    0.22295000    -0.26920000
opls_750-198    N    0.47028012    0.85608014    0.67636020    -0.22900000
opls_750-199    N    0.15338013    0.66484025    0.78243018    -0.26910000
opls_750-200    N    0.34416011    0.52119032    0.69133983    -0.26910000
opls_750-201    N    0.50266991    0.37568017    0.67833019    -0.22890000
opls_750-202    N    0.83459993    0.50927019    0.76276016    -0.22890000
opls_750-203    N    0.63417021    0.16468005    0.72295000    -0.26920000
opls_146-204    H    0.19882025    0.96339016    0.20475002    0.05160000
opls_146-205    H    0.29274004    0.88046026    0.37503032    0.05160000
opls_146-206    H    0.23292025    0.76655027    0.37330981    0.05160000
opls_146-207    H    0.12591017    0.77129002    0.03737004    0.05150000
opls_146-208    H    0.18600017    0.88546003    0.03851009    0.05150000
opls_146-209    H    0.33084034    0.90384043    0.01163006    0.05160000
opls_146-210    H    0.38652027    0.84564033    0.00374018    0.05160000
opls_146-211    H    0.48425994    0.93739002    0.36764039    0.05160000
opls_146-212    H    0.42711002    0.99369024    0.37864029    0.05160000
opls_144-213    H    0.10603996    0.67302013    0.12134977    0.03040000
opls_146-214    H    0.77503005    0.75148022    0.31211013    0.05150000
opls_146-215    H    0.71766026    0.80749023    0.29608985    0.05160000
opls_146-216    H    0.77950005    0.68889006    0.46480966    0.05160000
opls_146-217    H    0.84347996    0.64026996    0.49641984    0.05160000
opls_146-218    H    0.76151985    0.52907008    0.14141040    0.05150000
opls_146-219    H    0.69910000    0.57831025    0.10787993    0.05160000
opls_146-220    H    0.65364012    0.81810038    0.42068979    0.05160000
opls_146-221    H    0.60077018    0.87881004    0.42298976    0.05160000
opls_146-222    H    0.49298986    0.77720998    0.07754001    0.05160000
opls_146-223    H    0.54652006    0.71669003    0.07389027    0.05160000
opls_146-224    H    0.55076001    0.55146021    0.41164994    0.05160000
opls_146-225    H    0.49051015    0.43823022    0.38386045    0.05160000
opls_146-226    H    0.58381008    0.45338004    0.00742968    0.05160000
opls_146-227    H    0.64096025    0.56691014    0.03088957    0.05160000
opls_146-228    H    0.53605017    0.58772035    0.02610973    0.05160000
opls_146-229    H    0.42272009    0.52459034    0.01095020    0.05160000
opls_146-230    H    0.40611981    0.59964995    0.39068979    0.05160000
opls_146-231    H    0.51943982    0.66303998    0.40569029    0.05160000
opls_144-232    H    0.87362003    0.56569028    0.42939966    0.03040000
opls_144-233    H    0.52492007    0.90052017    0.34002982    0.03040000
opls_146-234    H    0.04160992    0.28208019    0.31097008    0.05160000
opls_146-235    H    0.12422007    0.35460995    0.46836994    0.05150000
opls_146-236    H    0.23804995    0.41009002    0.46812047    0.05160000
opls_146-237    H    0.23999013    0.50591027    0.10439022    0.05160000
opls_146-238    H    0.12602007    0.45149008    0.10620018    0.05160000
opls_146-239    H    0.11071999    0.48206009    0.46684027    0.05160000
opls_146-240    H    0.16827003    0.59603993    0.45983998    0.05160000
opls_146-241    H    0.06927009    0.59234024    0.10027035    0.05160000
opls_146-242    H    0.01323007    0.47829010    0.10439022    0.05160000
opls_144-243    H    0.33456999    0.50059010    0.39406023    0.03040000
opls_146-244    H    0.25638988    0.07659987    0.21464964    0.05160000
opls_146-245    H    0.31759014    0.14557008    0.38737998    0.05160000
opls_146-246    H    0.36907996    0.25895013    0.40830037    0.05160000
opls_146-247    H    0.48581004    0.27823990    0.07014015    0.05160000
opls_146-248    H    0.43425021    0.16461021    0.04885001    0.05160000
opls_146-249    H    0.45079018    0.13367023    0.38934997    0.05160000
opls_146-250    H    0.56425004    0.18384005    0.39901998    0.05160000
opls_146-251    H    0.56353995    0.09092007    0.03128019    0.05160000
opls_146-252    H    0.45033974    0.04236982    0.01917006    0.05160000
opls_144-253    H    0.44751000    0.35978006    0.34470033    0.03040000
opls_146-254    H    0.92872004    0.22938007    0.32169963    0.05160000
opls_146-255    H    0.85672006    0.33068992    0.49470033    0.05150000
opls_146-256    H    0.74337031    0.28139027    0.49410993    0.05160000
opls_146-257    H    0.73442978    0.17196994    0.14906967    0.05160000
opls_146-258    H    0.84780012    0.22086987    0.14969983    0.05160000
opls_146-259    H    0.97060987    0.46547997    0.47225027    0.05160000
opls_146-260    H    0.91654005    0.52515994    0.45534042    0.05160000
opls_146-261    H    0.82221990    0.42265005    0.09783024    0.05160000
opls_146-262    H    0.87716015    0.36426024    0.11249975    0.05160000
opls_144-263    H    0.64447019    0.21131016    0.40091045    0.03040000
opls_146-264    H    0.19882025    0.96339016    0.70475002    0.05160000
opls_146-265    H    0.29274004    0.88046026    0.87503032    0.05160000
opls_146-266    H    0.23292025    0.76655027    0.87330981    0.05150000
opls_146-267    H    0.12591017    0.77129002    0.53737004    0.05160000
opls_146-268    H    0.18600017    0.88546003    0.53851009    0.05160000
opls_146-269    H    0.33084034    0.90384043    0.51162012    0.05160000
opls_146-270    H    0.38652027    0.84564033    0.50374018    0.05160000
opls_146-271    H    0.48425994    0.93739002    0.86764039    0.05160000
opls_146-272    H    0.42711002    0.99369024    0.87864029    0.05160000
opls_144-273    H    0.10603996    0.67302013    0.62134977    0.03040000
opls_146-274    H    0.77503005    0.75148022    0.81210019    0.05160000
opls_146-275    H    0.71766026    0.80749023    0.79608985    0.05160000
opls_146-276    H    0.77950005    0.68889006    0.96480966    0.05160000
opls_146-277    H    0.84347996    0.64026996    0.99641984    0.05160000
opls_146-278    H    0.76151985    0.52907008    0.64141040    0.05160000
opls_146-279    H    0.69910000    0.57831025    0.60787993    0.05160000
opls_146-280    H    0.65364012    0.81810038    0.92068979    0.05160000
opls_146-281    H    0.60077018    0.87881004    0.92298976    0.05160000
opls_146-282    H    0.49298986    0.77720998    0.57754001    0.05160000
opls_146-283    H    0.54652006    0.71669003    0.57389027    0.05160000
opls_146-284    H    0.55076001    0.55146021    0.91164994    0.05150000
opls_146-285    H    0.49051015    0.43823022    0.88386045    0.05160000
opls_146-286    H    0.58381008    0.45338004    0.50742968    0.05160000
opls_146-287    H    0.64096025    0.56691014    0.53088957    0.05160000
opls_146-288    H    0.53605017    0.58772035    0.52610973    0.05160000
opls_146-289    H    0.42272009    0.52459034    0.51095020    0.05160000
opls_146-290    H    0.40611981    0.59964995    0.89068979    0.05160000
opls_146-291    H    0.51943982    0.66303998    0.90569029    0.05160000
opls_144-292    H    0.87362003    0.56569028    0.92940960    0.03040000
opls_144-293    H    0.52492007    0.90052017    0.84002982    0.03040000
opls_146-294    H    0.04160992    0.28208019    0.81097008    0.05160000
opls_146-295    H    0.12422007    0.35460995    0.96836994    0.05160000
opls_146-296    H    0.23804995    0.41009002    0.96810953    0.05160000
opls_146-297    H    0.23999013    0.50591027    0.60439022    0.05160000
opls_146-298    H    0.12602007    0.45149008    0.60620018    0.05160000
opls_146-299    H    0.11071999    0.48206009    0.96684027    0.05160000
opls_146-300    H    0.16827003    0.59603993    0.95983998    0.05160000
opls_146-301    H    0.06927009    0.59234024    0.60027035    0.05160000
opls_146-302    H    0.01323007    0.47829010    0.60439022    0.05160000
opls_144-303    H    0.33456999    0.50059010    0.89406023    0.03040000
opls_146-304    H    0.25638988    0.07659987    0.71464964    0.05150000
opls_146-305    H    0.31759014    0.14557008    0.88737998    0.05160000
opls_146-306    H    0.36907996    0.25895013    0.90830037    0.05160000
opls_146-307    H    0.48581004    0.27823990    0.57014015    0.05160000
opls_146-308    H    0.43425021    0.16461021    0.54885001    0.05160000
opls_146-309    H    0.45079018    0.13367023    0.88934997    0.05160000
opls_146-310    H    0.56425004    0.18384005    0.89901998    0.05160000
opls_146-311    H    0.56353995    0.09092007    0.53128019    0.05160000
opls_146-312    H    0.45033974    0.04236982    0.51917006    0.05150000
opls_144-313    H    0.44751000    0.35978006    0.84470033    0.03040000
opls_146-314    H    0.92872004    0.22938007    0.82169963    0.05160000
opls_146-315    H    0.85672006    0.33068992    0.99470033    0.05160000
opls_146-316    H    0.74337031    0.28139027    0.99410993    0.05160000
opls_146-317    H    0.73442978    0.17196994    0.64906967    0.05160000
opls_146-318    H    0.84780012    0.22086987    0.64968989    0.05160000
opls_146-319    H    0.97060987    0.46547997    0.97225027    0.05160000
opls_146-320    H    0.91654005    0.52515994    0.95534042    0.05160000
opls_146-321    H    0.82221990    0.42265005    0.59783024    0.05160000
opls_146-322    H    0.87716015    0.36426024    0.61248981    0.05160000
opls_144-323    H    0.64447019    0.21131016    0.90089951    0.03040000
