#======================================================================
# Crystal Data Generated By AuToFF
#----------------------------------------------------------------------

data_AuToFF_phase_1

_cell_length_a                         28.5100
_cell_length_b                         28.5100
_cell_length_c                         3.4000
_cell_angle_alpha                      90.00
_cell_angle_beta                       90.00
_cell_angle_gamma                      120.00
_symmetry_space_group_name_H-M_alt     'P 1'
_symmetry_space_group_IT_number        1

loop_
_space_group_symop_operation_xyz
   'x, y, z'

loop_
   _atom_site_label
   _atom_site_type_symbol
   _atom_site_fract_x
   _atom_site_fract_y
   _atom_site_fract_z
   _atom_site_charge
opls_145-0    C    0.30493010    0.55536002    0.50000000    -0.22200000
opls_166-1    C    0.34559001    0.54255990    0.50000000    0.18650000
opls_700-2    C    0.31836008    0.61076014    0.50000000    0.03600000
opls_700-3    C    0.37447017    0.65208028    0.50000000    0.03170000
opls_145-4    C    0.41437012    0.63608013    0.50000000    -0.18560000
opls_166-5    C    0.39871992    0.58194001    0.50000000    0.18950000
opls_567-6    C    0.41268000    0.46073005    0.50000000    -0.32480000
opls_716-7    C    0.37766994    0.40548019    0.50000000    -0.11120000
opls_145-8    C    0.44464018    0.74957008    0.50000000    -0.22200000
opls_166-9    C    0.45745000    0.80304029    0.50000000    0.18590000
opls_700-10    C    0.38923999    0.70760029    0.50000000    0.03600000
opls_700-11    C    0.34791999    0.72238013    0.50000000    0.03170000
opls_145-12    C    0.36392010    0.77828004    0.50000000    -0.18560000
opls_166-13    C    0.41805015    0.81678006    0.50000000    0.18950000
opls_567-14    C    0.53927004    0.95195011    0.50000000    -0.32480000
opls_716-15    C    0.59452010    0.97218998    0.50000000    -0.11120000
opls_145-16    C    0.25043028    0.69507031    0.50000000    -0.22210000
opls_166-17    C    0.19696014    0.65440994    0.50000000    0.18650000
opls_700-18    C    0.29240013    0.68163997    0.50000000    0.03600000
opls_700-19    C    0.27762027    0.62553027    0.50000000    0.03170000
opls_145-20    C    0.22172000    0.58563011    0.50000000    -0.18560000
opls_166-21    C    0.18322011    0.60127993    0.50000000    0.18950000
opls_567-22    C    0.04805016    0.58732024    0.50000000    -0.32480000
opls_716-23    C    0.02781015    0.62233024    0.50000000    -0.11130000
opls_145-24    C    0.55536017    0.30493010    0.50000000    -0.22200000
opls_166-25    C    0.54256003    0.34559006    0.50000000    0.18650000
opls_700-26    C    0.61076016    0.31836003    0.50000000    0.03600000
opls_700-27    C    0.65208004    0.37447014    0.50000000    0.03170000
opls_145-28    C    0.63608007    0.41436989    0.50000000    -0.17990000
opls_166-29    C    0.58195000    0.39872007    0.50000000    0.18950000
opls_567-30    C    0.46073012    0.41268016    0.50000000    -0.32480000
opls_716-31    C    0.40548012    0.37767017    0.50000000    -0.11120000
opls_145-32    C    0.74957008    0.44463998    0.50000000    -0.22210000
opls_166-33    C    0.80303994    0.45744010    0.50000000    0.18590000
opls_700-34    C    0.70760014    0.38924026    0.50000000    0.03600000
opls_700-35    C    0.72237991    0.34792012    0.50000000    0.03170000
opls_145-36    C    0.77827983    0.36391987    0.50000000    -0.18560000
opls_166-37    C    0.81678031    0.41805027    0.50000000    0.18950000
opls_567-38    C    0.95194995    0.53926995    0.50000000    -0.32480000
opls_716-39    C    0.97218996    0.59452021    0.50000000    -0.11120000
opls_145-40    C    0.69507010    0.25042992    0.50000000    -0.22210000
opls_166-41    C    0.65440990    0.19696011    0.50000000    0.18650000
opls_700-42    C    0.68163990    0.29240012    0.50000000    0.03600000
opls_700-43    C    0.62553003    0.27761987    0.50000000    0.03170000
opls_145-44    C    0.58562988    0.22171996    0.50000000    -0.18550000
opls_166-45    C    0.60127991    0.18321994    0.50000000    0.18950000
opls_567-46    C    0.58731993    0.04804989    0.50000000    -0.32480000
opls_716-47    C    0.62233012    0.02781002    0.50000000    -0.11120000
opls_167-48    O    0.33805988    0.49065993    0.50000000    -0.33230000
opls_167-49    O    0.43363007    0.56184028    0.50000000    -0.33190000
opls_167-50    O    0.50934017    0.84740008    0.50000000    -0.33240000
opls_167-51    O    0.43816004    0.87180027    0.50000000    -0.33190000
opls_167-52    O    0.15259995    0.66193999    0.50000000    -0.33240000
opls_167-53    O    0.12820989    0.56636998    0.50000000    -0.33180000
opls_167-54    O    0.49065996    0.33806001    0.50000000    -0.33220000
opls_167-55    O    0.56183991    0.43363002    0.50000000    -0.33180000
opls_167-56    O    0.84739996    0.50934007    0.50000000    -0.33240000
opls_167-57    O    0.87180016    0.43816013    0.50000000    -0.33180000
opls_167-58    O    0.66194009    0.15259992    0.50000000    -0.33240000
opls_167-59    O    0.56637015    0.12820013    0.50000000    -0.33180000
MOF2_B_2-60    B    0.39469015    0.50393028    0.50000000    0.60380000
MOF2_B_2-61    B    0.49607008    0.89076029    0.50000000    0.60380000
MOF2_B_2-62    B    0.10924018    0.60531025    0.50000000    0.60390000
MOF2_B_2-63    B    0.50393014    0.39469016    0.50000000    0.60380000
MOF2_B_2-64    B    0.89076007    0.49607013    0.50000000    0.60390000
MOF2_B_2-65    B    0.60530999    0.10924012    0.50000000    0.60380000
opls_146-66    H    0.26452011    0.52124998    0.50000000    0.10260000
opls_146-67    H    0.45734997    0.66328991    0.50000000    0.10260000
opls_570-68    H    0.33387011    0.38665991    0.50000000    0.11880000
opls_146-69    H    0.47875022    0.74328018    0.50000000    0.10260000
opls_146-70    H    0.33671025    0.79406028    0.50000000    0.10260000
opls_570-71    H    0.61333993    0.94721021    0.50000000    0.11880000
opls_146-72    H    0.25671999    0.73547997    0.50000000    0.10260000
opls_146-73    H    0.20593998    0.54265021    0.50000000    0.10270000
opls_570-74    H    0.05279010    0.66614001    0.50000000    0.12140000
opls_146-75    H    0.52124984    0.26452003    0.50000000    0.10260000
opls_146-76    H    0.66328997    0.45735019    0.50000000    0.10260000
opls_570-77    H    0.38666007    0.33387011    0.50000000    0.11880000
opls_146-78    H    0.74327996    0.47875002    0.50000000    0.10260000
opls_146-79    H    0.79406006    0.33671009    0.50000000    0.10260000
opls_570-80    H    0.94721021    0.61334009    0.50000000    0.11880000
opls_146-81    H    0.73548007    0.25672023    0.50000000    0.10260000
opls_146-82    H    0.54265018    0.20594013    0.50000000    0.10260000
opls_570-83    H    0.66614010    0.05279020    0.50000000    0.12140000
opls_633-84    S    0.47955995    0.47954993    0.50000000    0.26940000
opls_633-85    S    0.52045002    0.00000000    0.50000000    0.26930000
opls_633-86    S    0.00000020    0.52045007    0.50000000    0.26930000
