#======================================================================
# Crystal Data Generated By AuToFF
#----------------------------------------------------------------------

data_AuToFF_phase_1

_cell_length_a                         16.0000
_cell_length_b                         16.0000
_cell_length_c                         6.9000
_cell_angle_alpha                      40.00
_cell_angle_beta                       140.00
_cell_angle_gamma                      120.00
_symmetry_space_group_name_H-M_alt     'P 1'
_symmetry_space_group_IT_number        1

loop_
_space_group_symop_operation_xyz
   'x, y, z'

loop_
   _atom_site_label
   _atom_site_type_symbol
   _atom_site_fract_x
   _atom_site_fract_y
   _atom_site_fract_z
   _atom_site_charge
opls_521-0    C    0.25521989    0.66053978    0.00000000    0.11710000
opls_521-1    C    0.25521981    0.57750961    0.00000000    0.10920000
opls_521-2    C    0.33779986    0.57758972    0.00000000    0.10920000
opls_521-3    C    0.42108009    0.66044019    0.00000000    0.10920000
opls_521-4    C    0.42107981    0.74346963    0.00000000    0.11710000
opls_521-5    C    0.33780003    0.74365005    0.00000000    0.10920000
opls_521-6    C    0.50365976    0.90899952    0.00000000    0.00450000
opls_521-7    C    0.42107998    0.90952996    0.00000000    0.00730000
opls_521-8    C    0.08936996    0.57760993    0.00000000    0.00730000
opls_521-9    C    0.08936988    0.49457976    0.00000000    0.00450000
opls_521-10    C    0.42107984    0.49498968    0.00000000    -0.00650000
opls_521-11    C    0.50366006    0.57749013    0.00000000    0.00450000
opls_280-12    C    0.00608981    0.57778963    0.00000000    0.24590000
opls_280-13    C    0.00609001    0.41173002    0.00000000    0.24900000
opls_280-14    C    0.58693990    0.99245981    0.00000000    0.25380000
opls_280-15    C    0.42107970    0.99255940    0.00000000    0.24350000
opls_521-16    C    0.58694012    0.25004023    0.00000000    0.09550000
opls_521-17    C    0.66952012    0.25011024    0.00000000    0.10920000
opls_521-18    C    0.75279999    0.33295998    0.00000000    0.10920000
opls_521-19    C    0.75280007    0.41599014    0.00000000    0.10920000
opls_521-20    C    0.66952006    0.41557012    0.00000000    0.10920000
opls_521-21    C    0.58693984    0.33306968    0.00000000    0.09550000
opls_521-22    C    0.58694000    0.49913001    0.00000000    -0.00490000
opls_521-23    C    0.50435987    0.41601973    0.00000000    0.00730000
opls_521-24    C    0.50436012    0.08450024    0.00000000    -0.00670000
opls_521-25    C    0.58693981    0.08457963    0.00000000    -0.00830000
opls_521-26    C    0.91864992    0.41588983    0.00000000    -0.00900000
opls_521-27    C    0.91865000    0.49891999    0.00000000    0.00730000
opls_280-28    C    0.42108008    0.41620016    0.00000000    0.21590000
opls_280-29    C    0.58694008    0.57791015    0.00000000    0.20900000
opls_520-30    N    0.50365995    0.82657990    0.00000000    -0.12510000
opls_520-31    N    0.33779983    0.82606967    0.00000000    -0.13670000
opls_520-32    N    0.17194974    0.66071948    0.00000000    -0.14060000
opls_520-33    N    0.17194994    0.49465987    0.00000000    -0.13610000
opls_520-34    N    0.33779978    0.49455956    0.00000000    -0.13550000
opls_520-35    N    0.50365979    0.66051957    0.00000000    -0.13620000
opls_520-36    N    0.66951978    0.49859957    0.00000000    -0.13690000
opls_520-37    N    0.50435978    0.33298957    0.00000000    -0.13620000
opls_520-38    N    0.50435984    0.16752968    0.00000000    -0.13610000
opls_520-39    N    0.66952004    0.16708007    0.00000000    -0.13620000
opls_520-40    N    0.83537004    0.33304009    0.00000000    -0.13620000
opls_520-41    N    0.83536999    0.49849997    0.00000000    -0.13620000
opls_272-42    O    0.33709977    0.99117953    0.00000000    -0.17530000
opls_272-43    O    0.66952004    0.99193009    0.00000000    -0.17650000
opls_272-44    O    0.33779993    0.33273987    0.00000000    -0.17550000
opls_272-45    O    0.66951999    0.66041998    0.00000000    -0.19570000
opls_272-46    O    0.00609004    0.66022007    0.00000000    -0.19570000
opls_272-47    O    0.00608993    0.32869986    0.00000000    -0.17650000
