#======================================================================
# Crystal Data Generated By AuToFF
#----------------------------------------------------------------------

data_AuToFF_phase_1

_cell_length_a                         45.1278
_cell_length_b                         45.1278
_cell_length_c                         3.8216
_cell_angle_alpha                      90.00
_cell_angle_beta                       90.00
_cell_angle_gamma                      120.00
_symmetry_space_group_name_H-M_alt     'P 1'
_symmetry_space_group_IT_number        1

loop_
_space_group_symop_operation_xyz
   'x, y, z'

loop_
   _atom_site_label
   _atom_site_type_symbol
   _atom_site_fract_x
   _atom_site_fract_y
   _atom_site_fract_z
   _atom_site_charge
opls_146-0    H    0.30305993    0.70109990    0.52285954    0.04900000
opls_146-1    H    0.32807995    0.58552007    0.21062906    0.04900000
opls_146-2    H    0.35870999    0.55143005    0.19935891    0.04900000
opls_146-3    H    0.44322996    0.63236999    0.80188926    0.04900000
opls_146-4    H    0.41230000    0.66579013    0.82060917    0.04900000
opls_146-5    H    0.40279002    0.47617997    0.20821907    0.04910000
opls_146-6    H    0.44699008    0.45731007    0.20383086    0.04900000
opls_146-7    H    0.52261001    0.55610998    0.65223990    0.04900000
opls_146-8    H    0.47819994    0.57443000    0.66841114    0.04900000
opls_144-9    H    0.45090009    0.58652002    0.55792077    0.04900000
opls_146-10    H    0.29889988    0.60195994    0.52285954    0.04900000
opls_146-11    H    0.41448003    0.74256010    0.21062906    0.04900000
opls_146-12    H    0.44856993    0.80727996    0.19935891    0.04900000
opls_146-13    H    0.36763009    0.81086014    0.80188926    0.04900000
opls_146-14    H    0.33421012    0.74651001    0.82060917    0.04900000
opls_146-15    H    0.52381997    0.92660014    0.20821907    0.04850000
opls_146-16    H    0.54269016    0.98968011    0.20383086    0.04900000
opls_146-17    H    0.44389002    0.96650002    0.65223990    0.04900000
opls_146-18    H    0.42557000    0.90377009    0.66841114    0.04900000
opls_144-19    H    0.41347998    0.86437991    0.55792077    0.04900000
opls_146-20    H    0.39804006    0.69693991    0.52285954    0.04910000
opls_146-21    H    0.25744015    0.67192009    0.21062906    0.04900000
opls_146-22    H    0.19272008    0.64128999    0.19935891    0.04900000
opls_146-23    H    0.18914008    0.55677013    0.80188926    0.04900000
opls_146-24    H    0.25349001    0.58770011    0.82060917    0.04900000
opls_146-25    H    0.07339987    0.59720990    0.20821907    0.04910000
opls_146-26    H    0.01032011    0.55301007    0.20383086    0.04900000
opls_146-27    H    0.03349998    0.47739000    0.65223990    0.04900000
opls_146-28    H    0.09623006    0.52179991    0.66841114    0.04900000
opls_144-29    H    0.13561993    0.54910007    0.55792077    0.04900000
opls_146-30    H    0.69694007    0.29890010    0.52285954    0.04900000
opls_146-31    H    0.67192005    0.41447993    0.21062906    0.04900000
opls_146-32    H    0.64129001    0.44856995    0.19935891    0.04900000
opls_146-33    H    0.55677004    0.36763001    0.80188926    0.04900000
opls_146-34    H    0.58770013    0.33421013    0.82060917    0.04910000
opls_146-35    H    0.59720998    0.52382003    0.20821907    0.04900000
opls_146-36    H    0.55300992    0.54268993    0.20383086    0.04900000
opls_146-37    H    0.47738999    0.44389002    0.65223990    0.04900000
opls_146-38    H    0.52180006    0.42557000    0.66841114    0.04900000
opls_144-39    H    0.54909991    0.41347998    0.55792077    0.04900000
opls_146-40    H    0.70110012    0.39804006    0.52285954    0.04900000
opls_146-41    H    0.58551997    0.25743990    0.21062906    0.04900000
opls_146-42    H    0.55143007    0.19272004    0.19935891    0.04900000
opls_146-43    H    0.63237004    0.18914012    0.80188926    0.04900000
opls_146-44    H    0.66578988    0.25348999    0.82060917    0.04900000
opls_146-45    H    0.47618016    0.07340011    0.20821907    0.04850000
opls_146-46    H    0.45730984    0.01031989    0.20383086    0.04900000
opls_146-47    H    0.55610998    0.03349998    0.65223990    0.04900000
opls_146-48    H    0.57443000    0.09622991    0.66841114    0.04900000
opls_144-49    H    0.58652002    0.13562009    0.55792077    0.04900000
opls_146-50    H    0.60195994    0.30306009    0.52285954    0.04900000
opls_146-51    H    0.74255985    0.32807991    0.21062906    0.04900000
opls_146-52    H    0.80727992    0.35871001    0.19935891    0.04900000
opls_146-53    H    0.81086005    0.44323013    0.80188926    0.04900000
opls_146-54    H    0.74650999    0.41229989    0.82060917    0.04900000
opls_146-55    H    0.92660013    0.40279010    0.20821907    0.04900000
opls_146-56    H    0.98967989    0.44698993    0.20383086    0.04900000
opls_146-57    H    0.96650002    0.52261000    0.65223990    0.04900000
opls_146-58    H    0.90376994    0.47820009    0.66841114    0.04900000
opls_144-59    H    0.86438007    0.45089993    0.55792077    0.04900000
opls_700-60    C    0.35234987    0.70268990    0.52182070    0.08530000
opls_145-61    C    0.36889994    0.68345998    0.52221059    -0.08330000
opls_145-62    C    0.35388006    0.59584994    0.34655118    -0.09380000
opls_145-63    C    0.37066004    0.57707011    0.34124974    -0.09370000
opls_700-64    C    0.40226992    0.58944005    0.50954051    0.12790000
opls_145-65    C    0.41703993    0.62134005    0.67284122    -0.11130000
opls_145-66    C    0.40019012    0.64004005    0.68073058    -0.09380000
opls_700-67    C    0.36828004    0.62757006    0.51780929    0.07360000
opls_700-68    C    0.41151992    0.53713005    0.45383871    -0.00410000
opls_423-69    C    0.37650002    0.51294003    0.40849121    0.25930000
opls_142-70    C    0.42214003    0.57159006    0.50842056    -0.05970000
opls_145-71    C    0.42967001    0.49401000    0.31174116    -0.09540000
opls_145-72    C    0.45401994    0.48372005    0.30742098    -0.11200000
opls_700-73    C    0.48716007    0.50553992    0.42938036    0.08230000
opls_145-74    C    0.49557004    0.53787004    0.55514968    -0.11210000
opls_145-75    C    0.47116988    0.54807990    0.56314109    -0.09540000
opls_700-76    C    0.43772007    0.52627002    0.44262089    0.08140000
opls_700-77    C    0.29731000    0.64966012    0.52182070    0.08210000
opls_145-78    C    0.31653987    0.68543993    0.52221059    -0.08330000
opls_145-79    C    0.40415004    0.75802995    0.34655118    -0.09380000
opls_145-80    C    0.42293009    0.79358996    0.34124974    -0.09370000
opls_700-81    C    0.41055995    0.81283011    0.50954051    0.12790000
opls_145-82    C    0.37866013    0.79570015    0.67284122    -0.11130000
opls_145-83    C    0.35995996    0.76015012    0.68073058    -0.09380000
opls_700-84    C    0.37243006    0.74071013    0.51780929    0.07360000
opls_700-85    C    0.46287005    0.87438993    0.45383871    -0.00410000
opls_423-86    C    0.48705994    0.86356009    0.40849121    0.25940000
opls_142-87    C    0.42841007    0.85054995    0.50842056    -0.05970000
opls_145-88    C    0.50599012    0.93566011    0.31174116    -0.09540000
opls_145-89    C    0.51628004    0.97030000    0.30742098    -0.11200000
opls_700-90    C    0.49446013    0.98162010    0.42938036    0.08230000
opls_145-91    C    0.46212994    0.95770003    0.55514968    -0.11200000
opls_145-92    C    0.45191993    0.92309007    0.56314109    -0.09540000
opls_700-93    C    0.47373015    0.91145013    0.44262089    0.08140000
opls_700-94    C    0.35033991    0.64764998    0.52182070    0.08220000
opls_145-95    C    0.31455997    0.63110009    0.52221059    -0.08330000
opls_145-96    C    0.24197013    0.64612011    0.34655118    -0.09380000
opls_145-97    C    0.20640987    0.62933993    0.34124974    -0.09370000
opls_700-98    C    0.18717004    0.59773010    0.50954051    0.12800000
opls_145-99    C    0.20430006    0.58296006    0.67284122    -0.11130000
opls_145-100    C    0.23985005    0.59981009    0.68073058    -0.09380000
opls_700-101    C    0.25929003    0.63172007    0.51780929    0.07360000
opls_700-102    C    0.12561003    0.58848001    0.45383871    -0.00410000
opls_423-103    C    0.13644017    0.62350013    0.40849121    0.25930000
opls_142-104    C    0.14944989    0.57785999    0.50842056    -0.05970000
opls_145-105    C    0.06433999    0.57033014    0.31174116    -0.09540000
opls_145-106    C    0.02970003    0.54597995    0.30742098    -0.11200000
opls_700-107    C    0.01838003    0.51283999    0.42938036    0.08240000
opls_145-108    C    0.04230002    0.50442994    0.55514968    -0.11210000
opls_145-109    C    0.07690997    0.52883003    0.56314109    -0.09530000
opls_700-110    C    0.08855012    0.56228011    0.44262089    0.08150000
opls_700-111    C    0.64765013    0.29731010    0.52182070    0.08210000
opls_145-112    C    0.63110006    0.31654002    0.52221059    -0.08330000
opls_145-113    C    0.64611994    0.40415006    0.34655118    -0.09370000
opls_145-114    C    0.62933996    0.42292989    0.34124974    -0.09370000
opls_700-115    C    0.59773008    0.41055995    0.50954051    0.12790000
opls_145-116    C    0.58296007    0.37865995    0.67284122    -0.11130000
opls_145-117    C    0.59980988    0.35995995    0.68073058    -0.09380000
opls_700-118    C    0.63171996    0.37242994    0.51780929    0.07370000
opls_700-119    C    0.58848008    0.46286995    0.45383871    -0.00410000
opls_423-120    C    0.62349998    0.48705997    0.40849121    0.25930000
opls_142-121    C    0.57785997    0.42840994    0.50842056    -0.05970000
opls_145-122    C    0.57032999    0.50599000    0.31174116    -0.09540000
opls_145-123    C    0.54598006    0.51627995    0.30742098    -0.11200000
opls_700-124    C    0.51283993    0.49446008    0.42938036    0.08240000
opls_145-125    C    0.50442996    0.46212996    0.55514968    -0.11210000
opls_145-126    C    0.52883012    0.45192010    0.56314109    -0.09540000
opls_700-127    C    0.56227993    0.47372998    0.44262089    0.08140000
opls_700-128    C    0.70269013    0.35034013    0.52182070    0.08210000
opls_145-129    C    0.68346013    0.31456007    0.52221059    -0.08330000
opls_145-130    C    0.59584996    0.24197005    0.34655118    -0.09380000
opls_145-131    C    0.57706991    0.20641004    0.34124974    -0.09370000
opls_700-132    C    0.58944005    0.18716989    0.50954051    0.12790000
opls_145-133    C    0.62134000    0.20430011    0.67284122    -0.11130000
opls_145-134    C    0.64004004    0.23984988    0.68073058    -0.09380000
opls_700-135    C    0.62757007    0.25929013    0.51780929    0.07370000
opls_700-136    C    0.53712995    0.12561007    0.45383871    -0.00410000
opls_423-137    C    0.51294006    0.13643991    0.40849121    0.25930000
opls_142-138    C    0.57158993    0.14945005    0.50842056    -0.05970000
opls_145-139    C    0.49400988    0.06433989    0.31174116    -0.09540000
opls_145-140    C    0.48371996    0.02970000    0.30742098    -0.11200000
opls_700-141    C    0.50553987    0.01837990    0.42938036    0.08230000
opls_145-142    C    0.53787006    0.04229997    0.55514968    -0.11210000
opls_145-143    C    0.54808007    0.07690993    0.56314109    -0.09540000
opls_700-144    C    0.52626997    0.08855012    0.44262089    0.08160000
opls_700-145    C    0.64966009    0.35235002    0.52182070    0.08210000
opls_145-146    C    0.68544003    0.36889991    0.52221059    -0.08320000
opls_145-147    C    0.75802987    0.35387989    0.34655118    -0.09370000
opls_145-148    C    0.79359013    0.37066007    0.34124974    -0.09370000
opls_700-149    C    0.81282996    0.40226990    0.50954051    0.12790000
opls_145-150    C    0.79569994    0.41703994    0.67284122    -0.11120000
opls_145-151    C    0.76014995    0.40018991    0.68073058    -0.09380000
opls_700-152    C    0.74070997    0.36827993    0.51780929    0.07370000
opls_700-153    C    0.87438997    0.41151999    0.45383871    -0.00410000
opls_423-154    C    0.86355996    0.37650012    0.40849121    0.25930000
opls_142-155    C    0.85055011    0.42214001    0.50842056    -0.05970000
opls_145-156    C    0.93566014    0.42967011    0.31174116    -0.09540000
opls_145-157    C    0.97029997    0.45402005    0.30742098    -0.11190000
opls_700-158    C    0.98161997    0.48716001    0.42938036    0.08230000
opls_145-159    C    0.95769998    0.49557006    0.55514968    -0.11210000
opls_145-160    C    0.92309003    0.47116997    0.56314109    -0.09530000
opls_700-161    C    0.91144988    0.43771989    0.44262089    0.08140000
opls_753-162    N    0.36447988    0.48718995    0.68084049    -0.24280000
opls_753-163    N    0.51280993    0.87729000    0.68084049    -0.24270000
opls_753-164    N    0.12270996    0.63552004    0.68084049    -0.24280000
opls_753-165    N    0.63552012    0.51281005    0.68084049    -0.24270000
opls_753-166    N    0.48719007    0.12271000    0.68084049    -0.24270000
opls_753-167    N    0.87729004    0.36447996    0.68084049    -0.24280000
