#======================================================================
# Crystal Data Generated By AuToFF
#----------------------------------------------------------------------

data_AuToFF_phase_1

_cell_length_a                         30.2577
_cell_length_b                         30.2577
_cell_length_c                         4.2507
_cell_angle_alpha                      90.00
_cell_angle_beta                       90.00
_cell_angle_gamma                      120.00
_symmetry_space_group_name_H-M_alt     'P 1'
_symmetry_space_group_IT_number        1

loop_
_space_group_symop_operation_xyz
   'x, y, z'

loop_
   _atom_site_label
   _atom_site_type_symbol
   _atom_site_fract_x
   _atom_site_fract_y
   _atom_site_fract_z
   _atom_site_charge
opls_521-0    C    0.04518001    0.61041011    0.50000000    0.14480000
opls_522-1    C    0.04571999    0.65705997    0.50000000    -0.18540000
opls_142-2    C    0.09249997    0.60812000    0.50000000    0.04210000
opls_916-3    C    0.71743978    0.37826983    0.50000000    0.11520000
opls_145-4    C    0.72754002    0.42365003    0.50000000    -0.21820000
opls_145-5    C    0.77594004    0.46729003    0.50000000    -0.20740000
opls_145-6    C    0.81558995    0.46655999    0.50000000    0.15120000
opls_145-7    C    0.80605982    0.42155989    0.50000000    -0.20440000
opls_145-8    C    0.75761991    0.37802979    0.50000000    -0.20600000
opls_521-9    C    0.61039997    0.04517985    0.50000000    0.14480000
opls_522-10    C    0.65705981    0.04571984    0.50000000    -0.17800000
opls_142-11    C    0.60809995    0.09248991    0.50000000    0.04210000
opls_916-12    C    0.37826998    0.71743982    0.50000000    0.11530000
opls_145-13    C    0.42364988    0.72753983    0.50000000    -0.21820000
opls_145-14    C    0.46728987    0.77592988    0.50000000    -0.20740000
opls_145-15    C    0.46657009    0.81558002    0.50000000    0.15120000
opls_145-16    C    0.42156001    0.80604978    0.50000000    -0.20440000
opls_145-17    C    0.37803977    0.75760973    0.50000000    -0.20600000
opls_523-18    C    0.99999999    0.65736985    0.50000000    -0.10320000
opls_521-19    C    0.38959015    0.43477011    0.50000000    0.14480000
opls_522-20    C    0.34294004    0.38865987    0.50000000    -0.18540000
opls_142-21    C    0.39188008    0.48437983    0.50000000    0.04210000
opls_916-22    C    0.62173007    0.33916999    0.50000000    0.11520000
opls_145-23    C    0.57634993    0.30388980    0.50000000    -0.21820000
opls_145-24    C    0.53271008    0.30865015    0.50000000    -0.20740000
opls_145-25    C    0.53343981    0.34902996    0.50000000    0.15120000
opls_145-26    C    0.57843987    0.38449981    0.50000000    -0.20440000
opls_145-27    C    0.62196988    0.37958986    0.50000000    -0.20600000
opls_521-28    C    0.95482003    0.56521996    0.50000000    0.14480000
opls_522-29    C    0.95427998    0.61133975    0.50000000    -0.17800000
opls_142-30    C    0.90750997    0.51560987    0.50000000    0.04210000
opls_916-31    C    0.28256008    0.66083001    0.50000000    0.11540000
opls_145-32    C    0.27245994    0.69610982    0.50000000    -0.21820000
opls_145-33    C    0.22406985    0.69135977    0.50000000    -0.20740000
opls_145-34    C    0.18441978    0.65098989    0.50000000    0.15120000
opls_145-35    C    0.19394997    0.61551011    0.50000000    -0.20440000
opls_145-36    C    0.24238994    0.62042998    0.50000000    -0.20600000
opls_523-37    C    0.34262996    0.34262977    0.50000000    -0.10320000
opls_521-38    C    0.56522985    0.95481977    0.50000000    0.14480000
opls_522-39    C    0.61133978    0.95427978    0.50000000    -0.18540000
opls_142-40    C    0.51561977    0.90749979    0.50000000    0.04210000
opls_916-41    C    0.66082996    0.28255980    0.50000000    0.11520000
opls_145-42    C    0.69610986    0.27245979    0.50000000    -0.21820000
opls_145-43    C    0.69134988    0.22405982    0.50000000    -0.20740000
opls_145-44    C    0.65096990    0.18441005    0.50000000    0.15120000
opls_145-45    C    0.61550012    0.19393992    0.50000000    -0.20440000
opls_145-46    C    0.62041001    0.24237996    0.50000000    -0.20600000
opls_521-47    C    0.43477981    0.38959981    0.50000000    0.14480000
opls_522-48    C    0.38866002    0.34294003    0.50000000    -0.17800000
opls_142-49    C    0.48438989    0.39189984    0.50000000    0.04210000
opls_916-50    C    0.33916975    0.62172979    0.50000000    0.11530000
opls_145-51    C    0.30388999    0.57634997    0.50000000    -0.21810000
opls_145-52    C    0.30864009    0.53270997    0.50000000    -0.20730000
opls_145-53    C    0.34901013    0.53343009    0.50000000    0.15120000
opls_145-54    C    0.38449002    0.57844011    0.50000000    -0.20440000
opls_145-55    C    0.37957010    0.62195990    0.50000000    -0.20600000
opls_523-56    C    0.65736986    0.00000000    0.50000000    -0.10320000
opls_750-57    N    0.86395993    0.51284005    0.50000000    -0.32150000
opls_750-58    N    0.51284988    0.86394985    0.50000000    -0.32150000
opls_520-59    N    0.00000005    0.56609006    0.50000000    -0.31910000
opls_750-60    N    0.48716007    0.35112010    0.50000000    -0.32150000
opls_750-61    N    0.13604990    0.64889975    0.50000000    -0.32130000
opls_520-62    N    0.43390999    0.43390994    0.50000000    -0.31910000
opls_750-63    N    0.64888000    0.13603985    0.50000000    -0.32150000
opls_750-64    N    0.35110004    0.48715002    0.50000000    -0.32140000
opls_520-65    N    0.56608995    0.00000000    0.50000000    -0.31910000
opls_239-66    N    0.66666997    0.33333003    0.50000000    -0.16780000
opls_239-67    N    0.33333003    0.66666997    0.50000000    -0.16780000
opls_525-68    H    0.08123007    0.69271987    0.50000000    0.11710000
opls_144-69    H    0.08964986    0.57119006    0.50000000    0.09340000
opls_146-70    H    0.69772994    0.42571995    0.50000000    0.22580000
opls_146-71    H    0.78285996    0.50193978    0.50000000    0.22580000
opls_146-72    H    0.83527981    0.42023986    0.50000000    0.22580000
opls_146-73    H    0.75146996    0.34421007    0.50000000    0.22580000
opls_525-74    H    0.69270991    0.08123015    0.50000000    0.09180000
opls_144-75    H    0.57116996    0.08963003    0.50000000    0.09330000
opls_146-76    H    0.42572005    0.69772981    0.50000000    0.22590000
opls_146-77    H    0.50194984    0.78285975    0.50000000    0.22580000
opls_146-78    H    0.42023986    0.83526981    0.50000000    0.22580000
opls_146-79    H    0.34421004    0.75146982    0.50000000    0.22580000
opls_526-80    H    0.99998982    0.69315988    0.50000000    0.10370000
opls_525-81    H    0.30728006    0.38850990    0.50000000    0.11700000
opls_144-82    H    0.42880988    0.51845982    0.50000000    0.09340000
opls_146-83    H    0.57427981    0.27200986    0.50000000    0.22580000
opls_146-84    H    0.49805987    0.28091997    0.50000000    0.22580000
opls_146-85    H    0.57976006    0.41503988    0.50000000    0.22580000
opls_146-86    H    0.65579001    0.40726013    0.50000000    0.22580000
opls_525-87    H    0.91876997    0.61147980    0.50000000    0.09180000
opls_144-88    H    0.91037003    0.48153980    0.50000000    0.09330000
opls_146-89    H    0.30226977    0.72798976    0.50000000    0.22580000
opls_146-90    H    0.21713990    0.71908995    0.50000000    0.22580000
opls_146-91    H    0.16473010    0.58497005    0.50000000    0.22580000
opls_146-92    H    0.24852988    0.59273987    0.50000000    0.22580000
opls_526-93    H    0.30683998    0.30682981    0.50000000    0.10370000
opls_525-94    H    0.61149001    0.91876985    0.50000000    0.11700000
opls_144-95    H    0.48153973    0.91034974    0.50000000    0.09340000
opls_146-96    H    0.72799005    0.30226981    0.50000000    0.22580000
opls_146-97    H    0.71907998    0.21713987    0.50000000    0.22580000
opls_146-98    H    0.58495994    0.16471989    0.50000000    0.22580000
opls_146-99    H    0.59274003    0.24852980    0.50000000    0.22580000
opls_525-100    H    0.38852011    0.30729005    0.50000000    0.09180000
opls_144-101    H    0.51845981    0.42882979    0.50000000    0.09330000
opls_146-102    H    0.27200999    0.57428005    0.50000000    0.22580000
opls_146-103    H    0.28091006    0.49804991    0.50000000    0.22580000
opls_146-104    H    0.41502984    0.57975976    0.50000000    0.22580000
opls_146-105    H    0.40725989    0.65578993    0.50000000    0.22580000
opls_526-106    H    0.69317001    0.00000992    0.50000000    0.10370000
