#======================================================================
# Crystal Data Generated By AuToFF
#----------------------------------------------------------------------

data_AuToFF_phase_1

_cell_length_a                         44.6434
_cell_length_b                         44.6434
_cell_length_c                         3.7300
_cell_angle_alpha                      90.00
_cell_angle_beta                       90.00
_cell_angle_gamma                      120.00
_symmetry_space_group_name_H-M_alt     'P 1'
_symmetry_space_group_IT_number        1

loop_
_space_group_symop_operation_xyz
   'x, y, z'

loop_
   _atom_site_label
   _atom_site_type_symbol
   _atom_site_fract_x
   _atom_site_fract_y
   _atom_site_fract_z
   _atom_site_charge
opls_700-0    C    0.70116987    0.33962990    0.48650938    0.06880000
opls_145-1    C    0.67284008    0.30565005    0.48735121    -0.16120000
opls_700-2    C    0.73743991    0.34620995    0.47571046    0.07150000
opls_145-3    C    0.61249990    0.23543000    0.32739946    -0.12380000
opls_145-4    C    0.58489994    0.20165991    0.30927078    -0.18070000
opls_145-5    C    0.55178995    0.19353003    0.43594906    0.19920000
opls_145-6    C    0.57560014    0.25401011    0.60457105    -0.12170000
opls_522-7    C    0.03596994    0.46720011    0.24027078    -0.04310000
opls_523-8    C    0.06801002    0.49536991    0.33430027    -0.20400000
opls_700-9    C    0.09814989    0.49261995    0.34890080    0.05930000
opls_523-10    C    0.09459009    0.46006008    0.27572118    -0.12460000
opls_145-11    C    0.54765001    0.22051988    0.58020107    -0.17380000
opls_142-12    C    0.52308015    0.13200010    0.42913941    0.03040000
opls_521-13    C    0.56570989    0.59801998    0.16694102    0.12070000
opls_522-14    C    0.43158011    0.06252005    0.19246917    -0.17030000
opls_700-15    C    0.66036983    0.36153987    0.48650938    0.06880000
opls_145-16    C    0.69435004    0.36719007    0.48735121    -0.16120000
opls_700-17    C    0.65379001    0.39123001    0.47571046    0.07150000
opls_145-18    C    0.76456997    0.37706997    0.32739946    -0.12380000
opls_145-19    C    0.79833995    0.38324006    0.30927078    -0.18070000
opls_145-20    C    0.80646995    0.35825993    0.43594906    0.19920000
opls_145-21    C    0.74598996    0.32159012    0.60457105    -0.12170000
opls_522-22    C    0.53280002    0.56877006    0.24027078    -0.04310000
opls_523-23    C    0.50462997    0.57263998    0.33430027    -0.20400000
opls_700-24    C    0.50737996    0.60552988    0.34890080    0.05930000
opls_523-25    C    0.53994000    0.63452995    0.27572118    -0.12460000
opls_145-26    C    0.77947995    0.32712988    0.58020107    -0.17380000
opls_142-27    C    0.86799998    0.39108000    0.42913941    0.03040000
opls_521-28    C    0.40198004    0.96768999    0.16694102    0.12070000
opls_522-29    C    0.93748010    0.36906011    0.19246917    -0.17030000
opls_700-30    C    0.63845995    0.29882997    0.48650938    0.06880000
opls_145-31    C    0.63280988    0.32715988    0.48735121    -0.16120000
opls_700-32    C    0.60877008    0.26256003    0.47571046    0.07150000
opls_145-33    C    0.62292991    0.38750003    0.32739946    -0.12380000
opls_145-34    C    0.61676011    0.41510003    0.30927078    -0.18070000
opls_145-35    C    0.64174010    0.44821004    0.43594906    0.19920000
opls_145-36    C    0.67841003    0.42440004    0.60457105    -0.12170000
opls_522-37    C    0.43122981    0.96402984    0.24027078    -0.04310000
opls_523-38    C    0.42735988    0.93198985    0.33430027    -0.20400000
opls_700-39    C    0.39447003    0.90184991    0.34890080    0.05930000
opls_523-40    C    0.36546992    0.90540997    0.27572118    -0.12460000
opls_145-41    C    0.67286991    0.45234999    0.58020107    -0.17380000
opls_142-42    C    0.60891986    0.47691991    0.42913941    0.03040000
opls_521-43    C    0.03231008    0.43429003    0.16694102    0.12070000
opls_522-44    C    0.63094014    0.56842011    0.19246917    -0.17030000
opls_700-45    C    0.33962998    0.70117003    0.48650938    0.06880000
opls_145-46    C    0.30564987    0.67283986    0.48735121    -0.16120000
opls_700-47    C    0.34621005    0.73743997    0.47571046    0.07150000
opls_145-48    C    0.23542989    0.61249997    0.32739946    -0.12380000
opls_145-49    C    0.20166008    0.58489997    0.30927078    -0.18070000
opls_145-50    C    0.19353006    0.55178996    0.43594906    0.19920000
opls_145-51    C    0.25400999    0.57559996    0.60457105    -0.12170000
opls_522-52    C    0.46719984    0.03596991    0.24027078    -0.04310000
opls_523-53    C    0.49536989    0.06800989    0.33430027    -0.20400000
opls_700-54    C    0.49262011    0.09815009    0.34890080    0.05930000
opls_523-55    C    0.46005995    0.09459003    0.27572118    -0.12460000
opls_145-56    C    0.22051993    0.54765001    0.58020107    -0.17380000
opls_142-57    C    0.13199996    0.52308009    0.42913941    0.03040000
opls_521-58    C    0.59802005    0.56570997    0.16694102    0.12070000
opls_522-59    C    0.06252004    0.43157989    0.19246917    -0.17030000
opls_700-60    C    0.36153996    0.66037010    0.48650938    0.06880000
opls_145-61    C    0.36719003    0.69434995    0.48735121    -0.16120000
opls_700-62    C    0.39122995    0.65379005    0.47571046    0.07150000
opls_145-63    C    0.37706990    0.76457000    0.32739946    -0.12380000
opls_145-64    C    0.38324003    0.79834009    0.30927078    -0.18070000
opls_145-65    C    0.35825992    0.80646997    0.43594906    0.19930000
opls_145-66    C    0.32159004    0.74598989    0.60457105    -0.12170000
opls_522-67    C    0.56876984    0.53279989    0.24027078    -0.04310000
opls_523-68    C    0.57264011    0.50463009    0.33430027    -0.20400000
opls_700-69    C    0.60552994    0.50738005    0.34890080    0.05930000
opls_523-70    C    0.63453001    0.53993992    0.27572118    -0.12460000
opls_145-71    C    0.32713001    0.77947987    0.58020107    -0.17380000
opls_142-72    C    0.39108006    0.86799990    0.42913941    0.03050000
opls_521-73    C    0.96768990    0.40198002    0.16694102    0.12070000
opls_522-74    C    0.36906007    0.93747995    0.19246917    -0.17020000
opls_700-75    C    0.29882983    0.63845988    0.48650938    0.06880000
opls_145-76    C    0.32715997    0.63280993    0.48735121    -0.16120000
opls_700-77    C    0.26256000    0.60876999    0.47571046    0.07150000
opls_145-78    C    0.38749999    0.62293003    0.32739946    -0.12380000
opls_145-79    C    0.41509989    0.61675994    0.30927078    -0.18070000
opls_145-80    C    0.44821002    0.64174007    0.43594906    0.19920000
opls_145-81    C    0.42439984    0.67840988    0.60457105    -0.12170000
opls_522-82    C    0.96402997    0.43122994    0.24027078    -0.04310000
opls_523-83    C    0.93199000    0.42736002    0.33430027    -0.20400000
opls_700-84    C    0.90184995    0.39446986    0.34890080    0.05930000
opls_523-85    C    0.90541004    0.36547005    0.27572118    -0.12460000
opls_145-86    C    0.45234994    0.67286986    0.58020107    -0.17380000
opls_142-87    C    0.47691998    0.60892000    0.42913941    0.03040000
opls_521-88    C    0.43429005    0.03231001    0.16694102    0.12070000
opls_522-89    C    0.56841999    0.63093989    0.19246917    -0.17030000
opls_905-90    C    0.62520004    0.62519994    0.92167024    -0.27800000
opls_905-91    C    0.37480008    0.00000000    0.92167024    -0.27790000
opls_905-92    C    0.00000010    0.37480006    0.92167024    -0.27810000
opls_750-93    N    0.52234993    0.16051003    0.39372118    -0.28160000
opls_750-94    N    0.83948986    0.36183990    0.39372118    -0.28160000
opls_750-95    N    0.63815999    0.47765007    0.39372118    -0.28150000
opls_750-96    N    0.16050992    0.52234993    0.39372118    -0.28160000
opls_750-97    N    0.36183990    0.83948997    0.39372118    -0.28160000
opls_750-98    N    0.47764996    0.63816010    0.39372118    -0.28150000
opls_900-99    N    0.40511991    0.00000000    0.07286059    -0.07170000
opls_900-100    N    0.99999995    0.40512002    0.07286059    -0.07170000
opls_900-101    N    0.59487992    0.59487998    0.07286059    -0.07170000
opls_146-102    H    0.63714990    0.24068990    0.21298928    0.11150000
opls_146-103    H    0.58880013    0.18190010    0.18083110    0.11260000
opls_526-104    H    0.33970001    0.88282002    0.28705094    0.11630000
opls_146-105    H    0.52251000    0.21477992    0.68380965    0.11180000
opls_146-106    H    0.57140004    0.27367990    0.72998123    0.11150000
opls_144-107    H    0.54667993    0.13155005    0.51972922    0.04630000
opls_526-108    H    0.47979008    0.54964006    0.38919035    0.11150000
opls_525-109    H    0.59298998    0.65442995    0.14682038    0.11710000
opls_146-110    H    0.67766003    0.28404995    0.48601072    0.11500000
opls_140-111    H    0.64002002    0.61734992    0.75064879    0.13660000
opls_146-112    H    0.75930998    0.39645991    0.21298928    0.11150000
opls_146-113    H    0.81810012    0.40690005    0.18083110    0.11270000
opls_526-114    H    0.11718010    0.45687998    0.28705094    0.11630000
opls_146-115    H    0.78521997    0.30773011    0.68380965    0.11180000
opls_146-116    H    0.72632010    0.29772011    0.72998123    0.11150000
opls_144-117    H    0.86844994    0.41513003    0.51972922    0.04630000
opls_526-118    H    0.45035999    0.93015008    0.38919035    0.11150000
opls_525-119    H    0.34556993    0.93856008    0.14682038    0.11710000
opls_146-120    H    0.71595010    0.39361011    0.48601072    0.11500000
opls_140-121    H    0.38264985    0.02266988    0.75064879    0.13660000
opls_146-122    H    0.60353999    0.36284993    0.21298928    0.11150000
opls_146-123    H    0.59310011    0.41120010    0.18083110    0.11260000
opls_526-124    H    0.54311989    0.66030000    0.28705094    0.11630000
opls_146-125    H    0.69227003    0.47748997    0.68380965    0.11180000
opls_146-126    H    0.70228008    0.42859999    0.72998123    0.11150000
opls_144-127    H    0.58486991    0.45331992    0.51972922    0.04630000
opls_526-128    H    0.06984993    0.52020986    0.38919035    0.11160000
opls_525-129    H    0.06144009    0.40700998    0.14682038    0.11710000
opls_146-130    H    0.60638987    0.32233994    0.48601072    0.11500000
opls_140-131    H    0.97733001    0.35997995    0.75064879    0.13660000
opls_146-132    H    0.24069006    0.63715007    0.21298928    0.11150000
opls_146-133    H    0.18190000    0.58879990    0.18083110    0.11260000
opls_526-134    H    0.88281989    0.33970000    0.28705094    0.11630000
opls_146-135    H    0.21478006    0.52251003    0.68380965    0.11180000
opls_146-136    H    0.27368009    0.57140001    0.72998123    0.11150000
opls_144-137    H    0.13154999    0.54668008    0.51972922    0.04630000
opls_526-138    H    0.54963994    0.47978988    0.38919035    0.11210000
opls_525-139    H    0.65443011    0.59299002    0.14682038    0.11710000
opls_146-140    H    0.28404993    0.67766006    0.48601072    0.11500000
opls_140-141    H    0.61735006    0.64002005    0.75064879    0.13660000
opls_146-142    H    0.39646000    0.75931010    0.21298928    0.11150000
opls_146-143    H    0.40690002    0.81809990    0.18083110    0.11260000
opls_526-144    H    0.45688000    0.11717998    0.28705094    0.11630000
opls_146-145    H    0.30773008    0.78522008    0.68380965    0.11180000
opls_146-146    H    0.29772014    0.72632010    0.72998123    0.11150000
opls_144-147    H    0.41512988    0.86844995    0.51972922    0.04630000
opls_526-148    H    0.93015002    0.45035994    0.38919035    0.11160000
opls_525-149    H    0.93856004    0.34557005    0.14682038    0.11710000
opls_146-150    H    0.39361008    0.71595005    0.48601072    0.11500000
opls_140-151    H    0.02267010    0.38265008    0.75064879    0.13660000
opls_146-152    H    0.36285007    0.60354009    0.21298928    0.11150000
opls_146-153    H    0.41120007    0.59309995    0.18083110    0.11260000
opls_526-154    H    0.66030011    0.54312002    0.28705094    0.11630000
opls_146-155    H    0.47748986    0.69226989    0.68380965    0.11180000
opls_146-156    H    0.42860000    0.70227989    0.72998123    0.11150000
opls_144-157    H    0.45331991    0.58486997    0.51972922    0.04630000
opls_526-158    H    0.52020991    0.06984992    0.38919035    0.11150000
opls_525-159    H    0.40700985    0.06143992    0.14682038    0.11710000
opls_146-160    H    0.32233999    0.60638989    0.48601072    0.11500000
opls_140-161    H    0.35997997    0.97733012    0.75064879    0.13670000
opls_140-162    H    0.64305993    0.64305996    0.12871046    0.15580000
opls_140-163    H    0.35694011    0.00000000    0.12871046    0.15580000
opls_140-164    H    0.99999997    0.35694004    0.12871046    0.15580000
opls_202-165    S    0.47435007    0.00000000    0.19934048    0.08280000
opls_202-166    S    0.99999994    0.47434996    0.19934048    0.08280000
opls_202-167    S    0.52564998    0.52565004    0.19934048    0.08280000
