#======================================================================
# Crystal Data Generated By AuToFF
#----------------------------------------------------------------------

data_AuToFF_phase_1

_cell_length_a                         36.4803
_cell_length_b                         36.4803
_cell_length_c                         4.6270
_cell_angle_alpha                      90.00
_cell_angle_beta                       90.00
_cell_angle_gamma                      120.00
_symmetry_space_group_name_H-M_alt     'P 1'
_symmetry_space_group_IT_number        1

loop_
_space_group_symop_operation_xyz
   'x, y, z'

loop_
   _atom_site_label
   _atom_site_type_symbol
   _atom_site_fract_x
   _atom_site_fract_y
   _atom_site_fract_z
   _atom_site_charge
opls_700-0    C    0.35678992    0.64548995    0.76894964    0.06720000
opls_145-1    C    0.37755991    0.68989997    0.77216987    -0.16400000
opls_700-2    C    0.38146979    0.62346979    0.73186946    0.07140000
opls_523-3    C    0.36713002    0.58898986    0.54063972    -0.16950000
opls_700-4    C    0.39148012    0.56965005    0.48851091    -0.06260000
opls_521-5    C    0.43086995    0.58540994    0.62679922    0.19280000
opls_522-6    C    0.44497000    0.61919003    0.82057921    -0.16260000
opls_523-7    C    0.42041999    0.63804998    0.87365031    -0.12290000
opls_521-8    C    0.44282010    0.53370998    0.39550032    0.13760000
opls_700-9    C    0.47124007    0.51534001    0.38025935    -0.02190000
opls_166-10    C    0.45599005    0.47155007    0.41003026    0.23980000
opls_523-11    C    0.48486013    0.45664006    0.38575103    -0.26930000
opls_181-12    C    0.39761993    0.40101010    0.53124054    -0.19130000
opls_166-13    C    0.37737002    0.53483998    0.30143938    0.16320000
opls_700-14    C    0.40372001    0.51758989    0.24462935    -0.03050000
opls_701-15    C    0.61206000    0.51686979    0.02162957    -0.18640000
opls_136-16    C    0.65852999    0.54754000    0.07934947    -0.19490000
opls_182-17    C    0.68318995    0.52385997    0.04545062    0.05440000
opls_700-18    C    0.35450996    0.71130005    0.76894964    0.06720000
opls_145-19    C    0.31009997    0.68765991    0.77216987    -0.16400000
opls_700-20    C    0.37652981    0.75799983    0.73186946    0.07140000
opls_523-21    C    0.41100997    0.77813981    0.54063972    -0.16950000
opls_700-22    C    0.43034990    0.82183005    0.48851091    -0.06260000
opls_521-23    C    0.41458987    0.84545975    0.62679922    0.19270000
opls_522-24    C    0.38080994    0.82577999    0.82057921    -0.16260000
opls_523-25    C    0.36194998    0.78236988    0.87365031    -0.12290000
opls_521-26    C    0.46629004    0.90910987    0.39550032    0.13760000
opls_700-27    C    0.48465985    0.95589986    0.38025935    -0.02190000
opls_166-28    C    0.52844989    0.98443984    0.41003026    0.23980000
opls_523-29    C    0.54336002    0.02821997    0.38575103    -0.26930000
opls_181-30    C    0.59899002    0.99660999    0.53124054    -0.19130000
opls_166-31    C    0.46515991    0.84252998    0.30143938    0.16310000
opls_700-32    C    0.48241007    0.88613000    0.24462935    -0.03050000
opls_701-33    C    0.48312999    0.09518983    0.02162957    -0.18640000
opls_136-34    C    0.45245990    0.11098992    0.07934947    -0.19500000
opls_182-35    C    0.47614005    0.15932994    0.04545062    0.05440000
opls_700-36    C    0.28870012    0.64321000    0.76894964    0.06720000
opls_145-37    C    0.31233996    0.62243981    0.77216987    -0.16400000
opls_700-38    C    0.24199996    0.61853007    0.73186946    0.07140000
opls_523-39    C    0.22186013    0.63287001    0.54063972    -0.16950000
opls_700-40    C    0.17816998    0.60851990    0.48851091    -0.06260000
opls_521-41    C    0.15454003    0.56913000    0.62679922    0.19270000
opls_522-42    C    0.17422006    0.55502998    0.82057921    -0.16260000
opls_523-43    C    0.21762987    0.57957982    0.87365031    -0.12290000
opls_521-44    C    0.09088998    0.55717983    0.39550032    0.13760000
opls_700-45    C    0.04409992    0.52875981    0.38025935    -0.02190000
opls_166-46    C    0.01556006    0.54401009    0.41003026    0.23980000
opls_523-47    C    0.97178012    0.51513997    0.38575103    -0.26930000
opls_181-48    C    0.00339004    0.60237990    0.53124054    -0.19130000
opls_166-49    C    0.15747007    0.62263004    0.30143938    0.16310000
opls_700-50    C    0.11387003    0.59627979    0.24462935    -0.03050000
opls_701-51    C    0.90481013    0.38794006    0.02162957    -0.18640000
opls_136-52    C    0.88901011    0.34147008    0.07934947    -0.19500000
opls_182-53    C    0.84066999    0.31681009    0.04545062    0.05440000
opls_700-54    C    0.64321008    0.35451005    0.76894964    0.06720000
opls_145-55    C    0.62244009    0.31010003    0.77216987    -0.16400000
opls_700-56    C    0.61853005    0.37652989    0.73186946    0.07140000
opls_523-57    C    0.63286982    0.41100983    0.54063972    -0.16950000
opls_700-58    C    0.60851988    0.43034995    0.48851091    -0.06260000
opls_521-59    C    0.56913005    0.41459006    0.62679922    0.19270000
opls_522-60    C    0.55503000    0.38080997    0.82057921    -0.16260000
opls_523-61    C    0.57958001    0.36195002    0.87365031    -0.12290000
opls_521-62    C    0.55717990    0.46629002    0.39550032    0.13760000
opls_700-63    C    0.52875993    0.48465999    0.38025935    -0.02190000
opls_166-64    C    0.54400995    0.52844993    0.41003026    0.23980000
opls_523-65    C    0.51513987    0.54335994    0.38575103    -0.26930000
opls_181-66    C    0.60238007    0.59898990    0.53124054    -0.19130000
opls_166-67    C    0.62262998    0.46516002    0.30143938    0.16310000
opls_700-68    C    0.59627983    0.48240980    0.24462935    -0.03050000
opls_701-69    C    0.38793984    0.48312990    0.02162957    -0.18640000
opls_136-70    C    0.34147001    0.45246000    0.07934947    -0.19500000
opls_182-71    C    0.31681005    0.47614003    0.04545062    0.05440000
opls_700-72    C    0.64549004    0.28869995    0.76894964    0.06720000
opls_145-73    C    0.68990003    0.31234009    0.77216987    -0.16400000
opls_700-74    C    0.62347003    0.24199986    0.73186946    0.07140000
opls_523-75    C    0.58898987    0.22185987    0.54063972    -0.16950000
opls_700-76    C    0.56965010    0.17816995    0.48851091    -0.06250000
opls_521-77    C    0.58540998    0.15453993    0.62679922    0.19270000
opls_522-78    C    0.61919006    0.17422001    0.82057921    -0.16260000
opls_523-79    C    0.63805002    0.21763012    0.87365031    -0.12290000
opls_521-80    C    0.53370996    0.09089013    0.39550032    0.13760000
opls_700-81    C    0.51534015    0.04410014    0.38025935    -0.02190000
opls_166-82    C    0.47154995    0.01555984    0.41003026    0.23980000
opls_523-83    C    0.45663998    0.97178003    0.38575103    -0.26920000
opls_181-84    C    0.40100998    0.00339001    0.53124054    -0.19130000
opls_166-85    C    0.53484009    0.15747002    0.30143938    0.16320000
opls_700-86    C    0.51758993    0.11387000    0.24462935    -0.03050000
opls_701-87    C    0.51686986    0.90480985    0.02162957    -0.18640000
opls_136-88    C    0.54753995    0.88900977    0.07934947    -0.19500000
opls_182-89    C    0.52385995    0.84067006    0.04545062    0.05440000
opls_700-90    C    0.71129988    0.35679000    0.76894964    0.06720000
opls_145-91    C    0.68765988    0.37755987    0.77216987    -0.16400000
opls_700-92    C    0.75800004    0.38146993    0.73186946    0.07140000
opls_523-93    C    0.77813987    0.36712999    0.54063972    -0.16950000
opls_700-94    C    0.82183002    0.39148010    0.48851091    -0.06260000
opls_521-95    C    0.84545997    0.43087000    0.62679922    0.19270000
opls_522-96    C    0.82577994    0.44497002    0.82057921    -0.16260000
opls_523-97    C    0.78236997    0.42041986    0.87365031    -0.12290000
opls_521-98    C    0.90910986    0.44281985    0.39550032    0.13760000
opls_700-99    C    0.95589992    0.47123987    0.38025935    -0.02190000
opls_166-100    C    0.98443994    0.45598991    0.41003026    0.23980000
opls_523-101    C    0.02821988    0.48486003    0.38575103    -0.26930000
opls_181-102    C    0.99660996    0.39762010    0.53124054    -0.19130000
opls_166-103    C    0.84252993    0.37736996    0.30143938    0.16320000
opls_700-104    C    0.88612981    0.40371989    0.24462935    -0.03050000
opls_701-105    C    0.09518987    0.61205994    0.02162957    -0.18640000
opls_136-106    C    0.11098989    0.65852992    0.07934947    -0.19500000
opls_182-107    C    0.15933001    0.68318991    0.04545062    0.05450000
opls_520-108    N    0.45474982    0.56710992    0.57792954    -0.28600000
opls_520-109    N    0.43288991    0.88763984    0.57792954    -0.28610000
opls_520-110    N    0.11235983    0.54524993    0.57792954    -0.28600000
opls_520-111    N    0.54525018    0.43289008    0.57792954    -0.28610000
opls_520-112    N    0.56710993    0.11235985    0.57792954    -0.28610000
opls_520-113    N    0.88764017    0.45475007    0.57792954    -0.28600000
opls_179-114    O    0.41280002    0.44480986    0.47821050    -0.19100000
opls_179-115    O    0.66352012    0.48266998    0.17921980    -0.23820000
opls_179-116    O    0.55518983    0.96798993    0.47821050    -0.19100000
opls_179-117    O    0.51732992    0.18084998    0.17921980    -0.23820000
opls_179-118    O    0.03200999    0.58719990    0.47821050    -0.19090000
opls_179-119    O    0.81914996    0.33648003    0.17921980    -0.23820000
opls_179-120    O    0.58719982    0.55518983    0.47821050    -0.19100000
opls_179-121    O    0.33647988    0.51733002    0.17921980    -0.23820000
opls_179-122    O    0.44481017    0.03201007    0.47821050    -0.19100000
opls_179-123    O    0.48267008    0.81915002    0.17921980    -0.23820000
opls_179-124    O    0.96799001    0.41280010    0.47821050    -0.19100000
opls_179-125    O    0.18085004    0.66351997    0.17921980    -0.23820000
opls_146-126    H    0.41179995    0.70788979    0.76459045    0.12030000
opls_526-127    H    0.33763011    0.57817001    0.42542900    0.12000000
opls_525-128    H    0.47489989    0.63078980    0.93154960    0.12200000
opls_526-129    H    0.43188011    0.66402008    0.02590015    0.12030000
opls_526-130    H    0.47364014    0.42304007    0.38550897    0.12550000
opls_185-131    H    0.41480988    0.39700983    0.71588070    0.08660000
opls_185-132    H    0.40057998    0.38538980    0.33354009    0.07620000
opls_185-133    H    0.36360006    0.38554997    0.58886103    0.07580000
opls_702-134    H    0.60993989    0.50269982    0.80861033    0.10600000
opls_702-135    H    0.59380989    0.53338997    0.00502053    0.08940000
opls_140-136    H    0.66280012    0.56067999    0.30164037    0.11400000
opls_140-137    H    0.67066010    0.57419000    0.92288956    0.08770000
opls_185-138    H    0.71518990    0.54354005    0.14019019    0.06040000
opls_185-139    H    0.68738001    0.51996004    0.81170089    0.06070000
opls_146-140    H    0.29210998    0.70390977    0.76459045    0.12030000
opls_526-141    H    0.42182997    0.75945997    0.42542900    0.12000000
opls_525-142    H    0.36920992    0.84410976    0.93154960    0.12190000
opls_526-143    H    0.33597999    0.76785996    0.02590015    0.12030000
opls_526-144    H    0.57695995    0.05060002    0.38550897    0.12550000
opls_185-145    H    0.60298991    0.01779990    0.71588070    0.08660000
opls_185-146    H    0.61460993    0.01518982    0.33354009    0.07620000
opls_185-147    H    0.61444985    0.97804979    0.58886103    0.07580000
opls_702-148    H    0.49730002    0.10724002    0.80861033    0.10600000
opls_702-149    H    0.46660990    0.06041996    0.00502053    0.08940000
opls_140-150    H    0.43931990    0.10211988    0.30164037    0.11410000
opls_140-151    H    0.42580995    0.09646987    0.92288956    0.08770000
opls_185-152    H    0.45646017    0.17165012    0.14019019    0.06040000
opls_185-153    H    0.48004010    0.16742005    0.81170089    0.06070000
opls_146-154    H    0.29609002    0.58819981    0.76459045    0.12030000
opls_526-155    H    0.24053992    0.66237002    0.42542900    0.12000000
opls_525-156    H    0.15588987    0.52509981    0.93154960    0.12190000
opls_526-157    H    0.23213990    0.56811996    0.02590015    0.12030000
opls_526-158    H    0.94939991    0.52635990    0.38550897    0.12550000
opls_185-159    H    0.98220005    0.58518995    0.71588070    0.08660000
opls_185-160    H    0.98480993    0.59942006    0.33354009    0.07620000
opls_185-161    H    0.02194993    0.63639992    0.58886103    0.07580000
opls_702-162    H    0.89275993    0.39005985    0.80861033    0.10610000
opls_702-163    H    0.93957993    0.40619007    0.00502053    0.08940000
opls_140-164    H    0.89787982    0.33719982    0.30164037    0.11400000
opls_140-165    H    0.90352979    0.32933982    0.92288956    0.08770000
opls_185-166    H    0.82834993    0.28480983    0.14019019    0.06040000
opls_185-167    H    0.83257988    0.31261990    0.81170089    0.06070000
opls_146-168    H    0.58819989    0.29210990    0.76459045    0.12030000
opls_526-169    H    0.66236989    0.42182999    0.42542900    0.12000000
opls_525-170    H    0.52509995    0.36920989    0.93154960    0.12190000
opls_526-171    H    0.56811989    0.33597992    0.02590015    0.12030000
opls_526-172    H    0.52635986    0.57695993    0.38550897    0.12550000
opls_185-173    H    0.58518996    0.60298985    0.71588070    0.08660000
opls_185-174    H    0.59941986    0.61460988    0.33354009    0.07620000
opls_185-175    H    0.63639994    0.61445003    0.58886103    0.07580000
opls_702-176    H    0.39005995    0.49729987    0.80861033    0.10600000
opls_702-177    H    0.40619011    0.46661003    0.00502053    0.08940000
opls_140-178    H    0.33719988    0.43932001    0.30164037    0.11410000
opls_140-179    H    0.32933990    0.42581000    0.92288956    0.08770000
opls_185-180    H    0.28481010    0.45645995    0.14019019    0.06040000
opls_185-181    H    0.31261999    0.48003996    0.81170089    0.06070000
opls_146-182    H    0.70788986    0.29608991    0.76459045    0.12030000
opls_526-183    H    0.57817003    0.24054003    0.42542900    0.12000000
opls_525-184    H    0.63078992    0.15588992    0.93154960    0.12190000
opls_526-185    H    0.66402001    0.23214004    0.02590015    0.12030000
opls_526-186    H    0.42304005    0.94939998    0.38550897    0.12550000
opls_185-187    H    0.39701009    0.98220010    0.71588070    0.08670000
opls_185-188    H    0.38538991    0.98480986    0.33354009    0.07620000
opls_185-189    H    0.38554999    0.02194989    0.58886103    0.07580000
opls_702-190    H    0.50269998    0.89275998    0.80861033    0.10600000
opls_702-191    H    0.53339010    0.93958004    0.00502053    0.08940000
opls_140-192    H    0.56067994    0.89787981    0.30164037    0.11400000
opls_140-193    H    0.57418989    0.90352982    0.92288956    0.08770000
opls_185-194    H    0.54353983    0.82834988    0.14019019    0.06040000
opls_185-195    H    0.51995990    0.83257995    0.81170089    0.06070000
opls_146-196    H    0.70390982    0.41179988    0.76459045    0.12030000
opls_526-197    H    0.75946008    0.33762998    0.42542900    0.12000000
opls_525-198    H    0.84410997    0.47489987    0.93154960    0.12190000
opls_526-199    H    0.76786010    0.43188004    0.02590015    0.12040000
opls_526-200    H    0.05060009    0.47364010    0.38550897    0.12550000
opls_185-201    H    0.01779995    0.41481005    0.71588070    0.08660000
opls_185-202    H    0.01519007    0.40057994    0.33354009    0.07620000
opls_185-203    H    0.97805007    0.36360008    0.58886103    0.07580000
opls_702-204    H    0.10723991    0.60993984    0.80861033    0.10600000
opls_702-205    H    0.06042007    0.59380993    0.00502053    0.08940000
opls_140-206    H    0.10212002    0.66279987    0.30164037    0.11400000
opls_140-207    H    0.09647006    0.67065987    0.92288956    0.08770000
opls_185-208    H    0.17164991    0.71518985    0.14019019    0.06040000
opls_185-209    H    0.16741996    0.68737978    0.81170089    0.06070000
