#======================================================================
# Crystal Data Generated By AuToFF
#----------------------------------------------------------------------

data_AuToFF_phase_1

_cell_length_a                         36.1000
_cell_length_b                         36.1000
_cell_length_c                         4.2000
_cell_angle_alpha                      90.00
_cell_angle_beta                       90.00
_cell_angle_gamma                      90.00
_symmetry_space_group_name_H-M_alt     'P 1'
_symmetry_space_group_IT_number        1

loop_
_space_group_symop_operation_xyz
   'x, y, z'

loop_
   _atom_site_label
   _atom_site_type_symbol
   _atom_site_fract_x
   _atom_site_fract_y
   _atom_site_fract_z
   _atom_site_charge
opls_716-0    C    0.97300997    0.39130997    0.21714048    -0.18960000
opls_716-1    C    0.01098006    0.38841994    0.21820952    -0.18880000
opls_543-2    C    0.96330000    0.42602992    0.10454048    0.18170000
opls_700-3    C    0.06387008    0.42802992    0.05126905    -0.08050000
opls_700-4    C    0.09047008    0.39609003    0.05441905    0.07160000
opls_523-5    C    0.08313989    0.36420997    0.87559048    -0.11920000
opls_522-6    C    0.10808006    0.33470997    0.87181905    -0.15740000
opls_521-7    C    0.14153989    0.33728006    0.03480952    0.19400000
opls_700-8    C    0.15029003    0.36949003    0.21195000    -0.00180000
opls_523-9    C    0.12343989    0.39788006    0.23095000    -0.15560000
opls_521-10    C    0.19912992    0.30943989    0.16540952    0.20230000
opls_522-11    C    0.20938006    0.34065014    0.33971905    -0.18570000
opls_700-12    C    0.18543989    0.37130997    0.36438095    -0.06990000
opls_700-13    C    0.22483989    0.27806011    0.12550000    -0.04110000
opls_523-14    C    0.26074986    0.28486011    0.00963095    -0.23270000
opls_166-15    C    0.28506011    0.25550997    0.94836905    0.26730000
opls_700-16    C    0.27340000    0.21891994    0.00149048    -0.06370000
opls_523-17    C    0.23751994    0.21206011    0.11633095    -0.22500000
opls_166-18    C    0.21343989    0.24117008    0.18270000    0.26830000
opls_521-19    C    0.29951994    0.18801994    0.95811905    0.20230000
opls_522-20    C    0.28976011    0.15666011    0.78290000    -0.20030000
opls_700-21    C    0.31441994    0.12660000    0.75771905    -0.06450000
opls_700-22    C    0.34961994    0.12924986    0.90650952    0.02010000
opls_521-23    C    0.35761994    0.16126011    0.08746905    0.19440000
opls_523-24    C    0.37723989    0.10177008    0.88035000    -0.16210000
opls_700-25    C    0.41042992    0.10420997    0.05243095    0.07220000
opls_523-26    C    0.41679003    0.13560000    0.24013095    -0.11980000
opls_522-27    C    0.39091994    0.16425014    0.25183095    -0.16410000
opls_543-28    C    0.42139003    0.97420997    0.10781905    0.18000000
opls_716-29    C    0.52725014    0.11321994    0.90056905    -0.18970000
opls_716-30    C    0.48941994    0.11578006    0.89550952    -0.18970000
opls_507-31    C    0.47588006    0.08157008    0.98845952    0.19440000
opls_507-32    C    0.53580997    0.07746011    0.99448095    0.19440000
opls_700-33    C    0.43811994    0.07330000    0.04331905    -0.07920000
opls_470-34    C    0.19922992    0.40430000    0.54033095    0.59010000
opls_470-35    C    0.30150000    0.09307008    0.58455000    0.60420000
opls_716-36    C    0.02699003    0.60869003    0.21714048    -0.18960000
opls_716-37    C    0.98901994    0.61158006    0.21820952    -0.18880000
opls_543-38    C    0.03670000    0.57397008    0.10454048    0.18170000
opls_700-39    C    0.93612992    0.57197008    0.05126905    -0.08050000
opls_700-40    C    0.90952992    0.60390997    0.05441905    0.07160000
opls_523-41    C    0.91686011    0.63579003    0.87559048    -0.11920000
opls_522-42    C    0.89191994    0.66529003    0.87181905    -0.15740000
opls_521-43    C    0.85846011    0.66271994    0.03480952    0.19400000
opls_700-44    C    0.84970997    0.63050997    0.21195000    -0.00180000
opls_523-45    C    0.87656011    0.60211994    0.23095000    -0.15560000
opls_521-46    C    0.80087008    0.69056011    0.16540952    0.20230000
opls_522-47    C    0.79061994    0.65934986    0.33971905    -0.18570000
opls_700-48    C    0.81456011    0.62869003    0.36438095    -0.06990000
opls_700-49    C    0.77516011    0.72193989    0.12550000    -0.04110000
opls_523-50    C    0.73924986    0.71513989    0.00963095    -0.23270000
opls_166-51    C    0.71493989    0.74449003    0.94836905    0.26730000
opls_700-52    C    0.72660000    0.78108006    0.00149048    -0.06370000
opls_523-53    C    0.76248006    0.78793989    0.11633095    -0.22500000
opls_166-54    C    0.78656011    0.75882992    0.18270000    0.26830000
opls_521-55    C    0.70048006    0.81198006    0.95811905    0.20230000
opls_522-56    C    0.71023989    0.84333989    0.78290000    -0.20030000
opls_700-57    C    0.68558006    0.87340000    0.75771905    -0.06450000
opls_700-58    C    0.65038006    0.87074986    0.90650952    0.02010000
opls_521-59    C    0.64238006    0.83873989    0.08746905    0.19440000
opls_523-60    C    0.62276011    0.89822992    0.88035000    -0.16210000
opls_700-61    C    0.58957008    0.89579003    0.05243095    0.07220000
opls_523-62    C    0.58320997    0.86440000    0.24013095    -0.11980000
opls_522-63    C    0.60908006    0.83574986    0.25183095    -0.16410000
opls_543-64    C    0.57860997    0.02579003    0.10781905    0.18000000
opls_716-65    C    0.47275014    0.88678006    0.90056905    -0.18970000
opls_716-66    C    0.51058006    0.88421994    0.89550952    -0.18970000
opls_507-67    C    0.52411994    0.91842992    0.98845952    0.19440000
opls_507-68    C    0.46419003    0.92253989    0.99448095    0.19440000
opls_700-69    C    0.56188006    0.92670000    0.04331905    -0.07920000
opls_470-70    C    0.80077008    0.59570000    0.54033095    0.59010000
opls_470-71    C    0.69850000    0.90692992    0.58455000    0.60420000
opls_716-72    C    0.60869003    0.97300997    0.21714048    -0.18960000
opls_716-73    C    0.61158006    0.01098006    0.21820952    -0.18880000
opls_543-74    C    0.57397008    0.96330000    0.10454048    0.18170000
opls_700-75    C    0.57197008    0.06387008    0.05126905    -0.08050000
opls_700-76    C    0.60390997    0.09047008    0.05441905    0.07160000
opls_523-77    C    0.63579003    0.08313989    0.87559048    -0.11920000
opls_522-78    C    0.66529003    0.10808006    0.87181905    -0.15740000
opls_521-79    C    0.66271994    0.14153989    0.03480952    0.19400000
opls_700-80    C    0.63050997    0.15029003    0.21195000    -0.00180000
opls_523-81    C    0.60211994    0.12343989    0.23095000    -0.15560000
opls_521-82    C    0.69056011    0.19912992    0.16540952    0.20230000
opls_522-83    C    0.65934986    0.20938006    0.33971905    -0.18570000
opls_700-84    C    0.62869003    0.18543989    0.36438095    -0.06990000
opls_700-85    C    0.72193989    0.22483989    0.12550000    -0.04110000
opls_523-86    C    0.71513989    0.26074986    0.00963095    -0.23270000
opls_166-87    C    0.74449003    0.28506011    0.94836905    0.26730000
opls_700-88    C    0.78108006    0.27340000    0.00149048    -0.06370000
opls_523-89    C    0.78793989    0.23751994    0.11633095    -0.22500000
opls_166-90    C    0.75882992    0.21343989    0.18270000    0.26830000
opls_521-91    C    0.81198006    0.29951994    0.95811905    0.20230000
opls_522-92    C    0.84333989    0.28976011    0.78290000    -0.20030000
opls_700-93    C    0.87340000    0.31441994    0.75771905    -0.06450000
opls_700-94    C    0.87074986    0.34961994    0.90650952    0.02010000
opls_521-95    C    0.83873989    0.35761994    0.08746905    0.19440000
opls_523-96    C    0.89822992    0.37723989    0.88035000    -0.16210000
opls_700-97    C    0.89579003    0.41042992    0.05243095    0.07220000
opls_523-98    C    0.86440000    0.41679003    0.24013095    -0.11980000
opls_522-99    C    0.83574986    0.39091994    0.25183095    -0.16410000
opls_543-100    C    0.02579003    0.42139003    0.10781905    0.18000000
opls_716-101    C    0.88678006    0.52725014    0.90056905    -0.18970000
opls_716-102    C    0.88421994    0.48941994    0.89550952    -0.18970000
opls_507-103    C    0.91842992    0.47588006    0.98845952    0.19440000
opls_507-104    C    0.92253989    0.53580997    0.99448095    0.19440000
opls_700-105    C    0.92670000    0.43811994    0.04331905    -0.07920000
opls_470-106    C    0.59570000    0.19922992    0.54033095    0.59010000
opls_470-107    C    0.90692992    0.30150000    0.58455000    0.60420000
opls_716-108    C    0.39130997    0.02699003    0.21714048    -0.18960000
opls_716-109    C    0.38841994    0.98901994    0.21820952    -0.18880000
opls_543-110    C    0.42602992    0.03670000    0.10454048    0.18170000
opls_700-111    C    0.42802992    0.93612992    0.05126905    -0.08050000
opls_700-112    C    0.39609003    0.90952992    0.05441905    0.07160000
opls_523-113    C    0.36420997    0.91686011    0.87559048    -0.11920000
opls_522-114    C    0.33470997    0.89191994    0.87181905    -0.15740000
opls_521-115    C    0.33728006    0.85846011    0.03480952    0.19400000
opls_700-116    C    0.36949003    0.84970997    0.21195000    -0.00180000
opls_523-117    C    0.39788006    0.87656011    0.23095000    -0.15560000
opls_521-118    C    0.30943989    0.80087008    0.16540952    0.20230000
opls_522-119    C    0.34065014    0.79061994    0.33971905    -0.18570000
opls_700-120    C    0.37130997    0.81456011    0.36438095    -0.06990000
opls_700-121    C    0.27806011    0.77516011    0.12550000    -0.04110000
opls_523-122    C    0.28486011    0.73924986    0.00963095    -0.23270000
opls_166-123    C    0.25550997    0.71493989    0.94836905    0.26730000
opls_700-124    C    0.21891994    0.72660000    0.00149048    -0.06370000
opls_523-125    C    0.21206011    0.76248006    0.11633095    -0.22500000
opls_166-126    C    0.24117008    0.78656011    0.18270000    0.26830000
opls_521-127    C    0.18801994    0.70048006    0.95811905    0.20230000
opls_522-128    C    0.15666011    0.71023989    0.78290000    -0.20030000
opls_700-129    C    0.12660000    0.68558006    0.75771905    -0.06450000
opls_700-130    C    0.12924986    0.65038006    0.90650952    0.02010000
opls_521-131    C    0.16126011    0.64238006    0.08746905    0.19440000
opls_523-132    C    0.10177008    0.62276011    0.88035000    -0.16210000
opls_700-133    C    0.10420997    0.58957008    0.05243095    0.07220000
opls_523-134    C    0.13560000    0.58320997    0.24013095    -0.11980000
opls_522-135    C    0.16425014    0.60908006    0.25183095    -0.16410000
opls_543-136    C    0.97420997    0.57860997    0.10781905    0.18000000
opls_716-137    C    0.11321994    0.47275014    0.90056905    -0.18970000
opls_716-138    C    0.11578006    0.51058006    0.89550952    -0.18970000
opls_507-139    C    0.08157008    0.52411994    0.98845952    0.19440000
opls_507-140    C    0.07746011    0.46419003    0.99448095    0.19440000
opls_700-141    C    0.07330000    0.56188006    0.04331905    -0.07920000
opls_470-142    C    0.40430000    0.80077008    0.54033095    0.59010000
opls_470-143    C    0.09307008    0.69850000    0.58455000    0.60420000
opls_520-144    N    0.16581994    0.30868006    0.01786905    -0.27120000
opls_520-145    N    0.33271994    0.18920000    0.10725952    -0.27550000
opls_542-146    N    0.44630997    0.00370997    0.03480000    -0.35790000
opls_542-147    N    0.50430000    0.05813989    0.04701905    -0.28480000
opls_520-148    N    0.83418006    0.69131994    0.01786905    -0.27120000
opls_520-149    N    0.66728006    0.81080000    0.10725952    -0.27550000
opls_542-150    N    0.55369003    0.99629003    0.03480000    -0.35790000
opls_542-151    N    0.49570000    0.94186011    0.04701905    -0.28480000
opls_520-152    N    0.69131994    0.16581994    0.01786905    -0.27120000
opls_520-153    N    0.81080000    0.33271994    0.10725952    -0.27550000
opls_542-154    N    0.99629003    0.44630997    0.03480000    -0.35790000
opls_542-155    N    0.94186011    0.50430000    0.04701905    -0.28480000
opls_520-156    N    0.30868006    0.83418006    0.01786905    -0.27120000
opls_520-157    N    0.18920000    0.66728006    0.10725952    -0.27550000
opls_542-158    N    0.00370997    0.55369003    0.03480000    -0.35790000
opls_542-159    N    0.05813989    0.49570000    0.04701905    -0.28480000
opls_269-160    O    0.22213989    0.40030997    0.74935000    -0.41020000
opls_268-161    O    0.18759003    0.44004986    0.46664048    -0.47900000
opls_269-162    O    0.28331994    0.09694986    0.34489048    -0.42360000
opls_268-163    O    0.30801994    0.05712992    0.68865000    -0.47770000
opls_167-164    O    0.32009003    0.26236011    0.82019048    -0.44310000
opls_167-165    O    0.17949003    0.23220000    0.32105952    -0.39090000
opls_269-166    O    0.77786011    0.59969003    0.74935000    -0.41020000
opls_268-167    O    0.81240997    0.55995014    0.46664048    -0.47900000
opls_269-168    O    0.71668006    0.90304986    0.34489048    -0.42360000
opls_268-169    O    0.69198006    0.94287008    0.68865000    -0.47770000
opls_167-170    O    0.67990997    0.73763989    0.82019048    -0.44310000
opls_167-171    O    0.82050997    0.76780000    0.32105952    -0.39090000
opls_269-172    O    0.59969003    0.22213989    0.74935000    -0.41020000
opls_268-173    O    0.55995014    0.18759003    0.46664048    -0.47900000
opls_269-174    O    0.90304986    0.28331994    0.34489048    -0.42360000
opls_268-175    O    0.94287008    0.30801994    0.68865000    -0.47770000
opls_167-176    O    0.73763989    0.32009003    0.82019048    -0.44310000
opls_167-177    O    0.76780000    0.17949003    0.32105952    -0.39090000
opls_269-178    O    0.40030997    0.77786011    0.74935000    -0.41020000
opls_268-179    O    0.44004986    0.81240997    0.46664048    -0.47900000
opls_269-180    O    0.09694986    0.71668006    0.34489048    -0.42360000
opls_268-181    O    0.05712992    0.69198006    0.68865000    -0.47770000
opls_167-182    O    0.26236011    0.67990997    0.82019048    -0.44310000
opls_167-183    O    0.23220000    0.82050997    0.32105952    -0.39090000
opls_547-184    H    0.95446011    0.36918006    0.28334048    0.12260000
opls_547-185    H    0.02600997    0.36370000    0.28365952    0.12580000
opls_526-186    H    0.05786011    0.36210000    0.74081905    0.10480000
opls_525-187    H    0.10194986    0.30993989    0.73650952    0.12310000
opls_526-188    H    0.12758006    0.42170997    0.37935000    0.11220000
opls_525-189    H    0.23636011    0.34137008    0.45199048    0.12310000
opls_526-190    H    0.26958006    0.31290997    0.95925000    0.12320000
opls_526-191    H    0.22834986    0.18409003    0.16635000    0.12100000
opls_525-192    H    0.26272992    0.15537008    0.67160952    0.12290000
opls_526-193    H    0.37323989    0.07811994    0.72834048    0.09630000
opls_526-194    H    0.44193989    0.13798006    0.37674048    0.12220000
opls_525-195    H    0.39621994    0.18872992    0.39428095    0.12240000
opls_545-196    H    0.46796011    0.00203989    0.87300952    0.31050000
opls_547-197    H    0.54610000    0.13569003    0.85068095    0.12910000
opls_547-198    H    0.47387008    0.14052992    0.84040952    0.12240000
opls_270-199    H    0.20236011    0.45874986    0.59438095    0.31760000
opls_270-200    H    0.32000000    0.05652992    0.90776905    0.31290000
opls_168-201    H    0.32710997    0.28961994    0.81215000    0.31240000
opls_168-202    H    0.16557008    0.25413989    0.41336905    0.33250000
opls_547-203    H    0.04553989    0.63081994    0.28334048    0.12260000
opls_547-204    H    0.97399003    0.63630000    0.28365952    0.12580000
opls_526-205    H    0.94213989    0.63790000    0.74081905    0.10480000
opls_525-206    H    0.89804986    0.69006011    0.73650952    0.12310000
opls_526-207    H    0.87241994    0.57829003    0.37935000    0.11220000
opls_525-208    H    0.76363989    0.65862992    0.45199048    0.12310000
opls_526-209    H    0.73041994    0.68709003    0.95925000    0.12320000
opls_526-210    H    0.77164986    0.81590997    0.16635000    0.12100000
opls_525-211    H    0.73727008    0.84462992    0.67160952    0.12290000
opls_526-212    H    0.62676011    0.92188006    0.72834048    0.09630000
opls_526-213    H    0.55806011    0.86201994    0.37674048    0.12220000
opls_525-214    H    0.60378006    0.81127008    0.39428095    0.12240000
opls_545-215    H    0.53203989    0.99796011    0.87300952    0.31050000
opls_547-216    H    0.45390000    0.86430997    0.85068095    0.12910000
opls_547-217    H    0.52612992    0.85947008    0.84040952    0.12240000
opls_270-218    H    0.79763989    0.54124986    0.59438095    0.31760000
opls_270-219    H    0.68000000    0.94347008    0.90776905    0.31290000
opls_168-220    H    0.67289003    0.71038006    0.81215000    0.31240000
opls_168-221    H    0.83442992    0.74586011    0.41336905    0.33250000
opls_547-222    H    0.63081994    0.95446011    0.28334048    0.12260000
opls_547-223    H    0.63630000    0.02600997    0.28365952    0.12580000
opls_526-224    H    0.63790000    0.05786011    0.74081905    0.10480000
opls_525-225    H    0.69006011    0.10194986    0.73650952    0.12310000
opls_526-226    H    0.57829003    0.12758006    0.37935000    0.11220000
opls_525-227    H    0.65862992    0.23636011    0.45199048    0.12310000
opls_526-228    H    0.68709003    0.26958006    0.95925000    0.12320000
opls_526-229    H    0.81590997    0.22834986    0.16635000    0.12100000
opls_525-230    H    0.84462992    0.26272992    0.67160952    0.12290000
opls_526-231    H    0.92188006    0.37323989    0.72834048    0.09630000
opls_526-232    H    0.86201994    0.44193989    0.37674048    0.12220000
opls_525-233    H    0.81127008    0.39621994    0.39428095    0.12240000
opls_545-234    H    0.99796011    0.46796011    0.87300952    0.31050000
opls_547-235    H    0.86430997    0.54610000    0.85068095    0.12910000
opls_547-236    H    0.85947008    0.47387008    0.84040952    0.12240000
opls_270-237    H    0.54124986    0.20236011    0.59438095    0.31760000
opls_270-238    H    0.94347008    0.32000000    0.90776905    0.31290000
opls_168-239    H    0.71038006    0.32710997    0.81215000    0.31240000
opls_168-240    H    0.74586011    0.16557008    0.41336905    0.33250000
opls_547-241    H    0.36918006    0.04553989    0.28334048    0.12260000
opls_547-242    H    0.36370000    0.97399003    0.28365952    0.12580000
opls_526-243    H    0.36210000    0.94213989    0.74081905    0.10480000
opls_525-244    H    0.30993989    0.89804986    0.73650952    0.12310000
opls_526-245    H    0.42170997    0.87241994    0.37935000    0.11220000
opls_525-246    H    0.34137008    0.76363989    0.45199048    0.12310000
opls_526-247    H    0.31290997    0.73041994    0.95925000    0.12320000
opls_526-248    H    0.18409003    0.77164986    0.16635000    0.12100000
opls_525-249    H    0.15537008    0.73727008    0.67160952    0.12290000
opls_526-250    H    0.07811994    0.62676011    0.72834048    0.09630000
opls_526-251    H    0.13798006    0.55806011    0.37674048    0.12220000
opls_525-252    H    0.18872992    0.60378006    0.39428095    0.12240000
opls_545-253    H    0.00203989    0.53203989    0.87300952    0.31050000
opls_547-254    H    0.13569003    0.45390000    0.85068095    0.12910000
opls_547-255    H    0.14052992    0.52612992    0.84040952    0.12240000
opls_270-256    H    0.45874986    0.79763989    0.59438095    0.31760000
opls_270-257    H    0.05652992    0.68000000    0.90776905    0.31290000
opls_168-258    H    0.28961994    0.67289003    0.81215000    0.31240000
opls_168-259    H    0.25413989    0.83442992    0.41336905    0.33250000
