#======================================================================
# Crystal Data Generated By AuToFF
#----------------------------------------------------------------------

data_AuToFF_phase_1

_cell_length_a                         21.8748
_cell_length_b                         21.8748
_cell_length_c                         3.7288
_cell_angle_alpha                      90.00
_cell_angle_beta                       90.00
_cell_angle_gamma                      120.00
_symmetry_space_group_name_H-M_alt     'P 1'
_symmetry_space_group_IT_number        1

loop_
_space_group_symop_operation_xyz
   'x, y, z'

loop_
   _atom_site_label
   _atom_site_type_symbol
   _atom_site_fract_x
   _atom_site_fract_y
   _atom_site_fract_z
   _atom_site_charge
opls_750-0    N    0.14429023    0.55994020    0.00000000    -0.22230000
opls_750-1    N    0.44005972    0.58434988    0.00000000    -0.22230000
opls_750-2    N    0.41565005    0.85570992    0.00000000    -0.22230000
opls_750-3    N    0.85570977    0.44005980    0.00000000    -0.22230000
opls_750-4    N    0.55994028    0.41565012    0.00000000    -0.22230000
opls_750-5    N    0.58434995    0.14429008    0.00000000    -0.22230000
opls_145-6    C    0.07168995    0.53128014    0.00000000    0.15910000
opls_145-7    C    0.03990009    0.57100009    0.00000000    -0.24860000
opls_145-8    C    0.96884997    0.53960989    0.00000000    -0.24860000
opls_142-9    C    0.80961010    0.37592014    0.00000000    0.08280000
opls_145-10    C    0.73655997    0.35463017    0.00000000    0.01000000
opls_145-11    C    0.71485997    0.40275009    0.00000000    -0.15840000
opls_145-12    C    0.46872026    0.54041014    0.00000000    0.15910000
opls_145-13    C    0.42899983    0.46889987    0.00000000    -0.24860000
opls_145-14    C    0.46039006    0.42924009    0.00000000    -0.24860000
opls_142-15    C    0.62407982    0.43369001    0.00000000    0.08280000
opls_145-16    C    0.64537003    0.38192992    0.00000000    0.01000000
opls_145-17    C    0.59724983    0.31210987    0.00000000    -0.15840000
opls_145-18    C    0.45959005    0.92831025    0.00000000    0.15910000
opls_145-19    C    0.53110009    0.96010004    0.00000000    -0.24860000
opls_145-20    C    0.57075997    0.03115002    0.00000000    -0.24860000
opls_142-21    C    0.56631009    0.19038985    0.00000000    0.08280000
opls_145-22    C    0.61807000    0.26343992    0.00000000    0.01000000
opls_145-23    C    0.68789021    0.28514004    0.00000000    -0.15840000
opls_145-24    C    0.92831005    0.46871986    0.00000000    0.15910000
opls_145-25    C    0.96009991    0.42899991    0.00000000    -0.24850000
opls_145-26    C    0.03115003    0.46039011    0.00000000    -0.24860000
opls_142-27    C    0.19038990    0.62407986    0.00000000    0.08280000
opls_145-28    C    0.26344003    0.64536983    0.00000000    0.01000000
opls_145-29    C    0.28514003    0.59724991    0.00000000    -0.15840000
opls_145-30    C    0.53127974    0.45958986    0.00000000    0.15910000
opls_145-31    C    0.57100017    0.53110013    0.00000000    -0.24860000
opls_145-32    C    0.53960994    0.57075991    0.00000000    -0.24860000
opls_142-33    C    0.37592018    0.56630999    0.00000000    0.08280000
opls_145-34    C    0.35462997    0.61807008    0.00000000    0.01000000
opls_145-35    C    0.40275017    0.68789013    0.00000000    -0.15820000
opls_145-36    C    0.54040995    0.07168975    0.00000000    0.15910000
opls_145-37    C    0.46889991    0.03989996    0.00000000    -0.24860000
opls_145-38    C    0.42924003    0.96884998    0.00000000    -0.24850000
opls_142-39    C    0.43368991    0.80961015    0.00000000    0.08280000
opls_145-40    C    0.38193000    0.73656008    0.00000000    0.01000000
opls_145-41    C    0.31210979    0.71485996    0.00000000    -0.15840000
opls_146-42    H    0.06883020    0.62580018    0.00000000    0.17940000
opls_146-43    H    0.94481000    0.57047011    0.00000000    0.17940000
opls_144-44    H    0.82336990    0.33675022    0.00000000    0.08780000
opls_146-45    H    0.75218999    0.45651028    0.00000000    0.17940000
opls_146-46    H    0.37419988    0.44303011    0.00000000    0.17940000
opls_146-47    H    0.42953027    0.37434023    0.00000000    0.17940000
opls_144-48    H    0.66324977    0.48661987    0.00000000    0.08780000
opls_146-49    H    0.54348978    0.29567998    0.00000000    0.17940000
opls_146-50    H    0.55697018    0.93117024    0.00000000    0.17930000
opls_146-51    H    0.62565999    0.05519018    0.00000000    0.17940000
opls_144-52    H    0.51337987    0.17662991    0.00000000    0.08780000
opls_146-53    H    0.70432004    0.24781027    0.00000000    0.17940000
opls_146-54    H    0.93116980    0.37419982    0.00000000    0.17930000
opls_146-55    H    0.05519000    0.42952989    0.00000000    0.17940000
opls_144-56    H    0.17663036    0.66325030    0.00000000    0.08780000
opls_146-57    H    0.24781028    0.54349025    0.00000000    0.17940000
opls_146-58    H    0.62580012    0.55696989    0.00000000    0.17930000
opls_146-59    H    0.57046999    0.62566030    0.00000000    0.17940000
opls_144-60    H    0.33675023    0.51338013    0.00000000    0.08780000
opls_146-61    H    0.45651022    0.70432002    0.00000000    0.17940000
opls_146-62    H    0.44302982    0.06882976    0.00000000    0.17930000
opls_146-63    H    0.37434028    0.94481034    0.00000000    0.17940000
opls_144-64    H    0.48662013    0.82337009    0.00000000    0.08780000
opls_146-65    H    0.29568022    0.75219026    0.00000000    0.17940000
