#======================================================================
# Crystal Data Generated By AuToFF
#----------------------------------------------------------------------

data_AuToFF_phase_1

_cell_length_a                         35.9218
_cell_length_b                         35.9218
_cell_length_c                         3.5630
_cell_angle_alpha                      90.00
_cell_angle_beta                       90.00
_cell_angle_gamma                      120.00
_symmetry_space_group_name_H-M_alt     'P 1'
_symmetry_space_group_IT_number        1

loop_
_space_group_symop_operation_xyz
   'x, y, z'

loop_
   _atom_site_label
   _atom_site_type_symbol
   _atom_site_fract_x
   _atom_site_fract_y
   _atom_site_fract_z
   _atom_site_charge
opls_700-0    C    0.28831001    0.64876006    0.00000000    0.08650000
opls_145-1    C    0.31563993    0.69347997    0.00000000    -0.07720000
opls_145-2    C    0.43382998    0.77722017    0.00000000    -0.07080000
opls_145-3    C    0.46069017    0.82182018    0.00000000    -0.12690000
opls_145-4    C    0.44303999    0.84898996    0.00000000    0.23540000
opls_145-5    C    0.39839003    0.83096988    0.00000000    -0.10540000
opls_145-6    C    0.37153989    0.78635991    0.00000000    -0.07090000
opls_700-7    C    0.38894995    0.75897990    0.00000000    0.07730000
opls_142-8    C    0.51127996    0.91423017    0.00000000    0.09400000
opls_700-9    C    0.71016997    0.36615000    0.00000000    0.08980000
opls_145-10    C    0.69910995    0.32276990    0.00000000    -0.07720000
opls_145-11    C    0.60157998    0.21116011    0.00000000    -0.07080000
opls_145-12    C    0.59100985    0.16806995    0.00000000    -0.12690000
opls_145-13    C    0.62355011    0.15724003    0.00000000    0.23530000
opls_145-14    C    0.66656990    0.18996991    0.00000000    -0.10540000
opls_145-15    C    0.67713000    0.23306007    0.00000000    -0.07090000
opls_700-16    C    0.64476016    0.24414008    0.00000000    0.07730000
opls_142-17    C    0.57486016    0.08110015    0.00000000    0.04120000
opls_567-18    C    0.42413994    0.46294005    0.00000000    -0.01800000
opls_716-19    C    0.40097997    0.41868014    0.00000000    -0.13220000
opls_716-20    C    0.42772005    0.40162987    0.00000000    -0.09930000
opls_567-21    C    0.47037003    0.43361013    0.00000000    -0.01800000
opls_700-22    C    0.35123998    0.63954992    0.00000000    0.08650000
opls_145-23    C    0.30652004    0.62215988    0.00000000    -0.07720000
opls_145-24    C    0.22278002    0.65661015    0.00000000    -0.07080000
opls_145-25    C    0.17818014    0.63887006    0.00000000    -0.12690000
opls_145-26    C    0.15101014    0.59405018    0.00000000    0.23540000
opls_145-27    C    0.16903011    0.56742011    0.00000000    -0.10540000
opls_145-28    C    0.21363996    0.58518013    0.00000000    -0.07090000
opls_700-29    C    0.24101994    0.62997011    0.00000000    0.07730000
opls_142-30    C    0.08577004    0.59704994    0.00000000    0.09400000
opls_700-31    C    0.63384983    0.34401989    0.00000000    0.08980000
opls_145-32    C    0.67723008    0.37633992    0.00000000    -0.07720000
opls_145-33    C    0.78884005    0.39042000    0.00000000    -0.07080000
opls_145-34    C    0.83192999    0.42293997    0.00000000    -0.12690000
opls_145-35    C    0.84276009    0.46631012    0.00000000    0.23530000
opls_145-36    C    0.81002998    0.47660000    0.00000000    -0.10540000
opls_145-37    C    0.76694008    0.44407006    0.00000000    -0.07090000
opls_700-38    C    0.75586005    0.40061988    0.00000000    0.07730000
opls_142-39    C    0.91890000    0.49375988    0.00000000    0.04130000
opls_567-40    C    0.53705981    0.96119989    0.00000000    -0.01800000
opls_716-41    C    0.58132008    0.98230009    0.00000000    -0.13220000
opls_716-42    C    0.59837009    0.02609004    0.00000000    -0.09930000
opls_567-43    C    0.56639006    0.03675988    0.00000000    -0.01800000
opls_700-44    C    0.36045001    0.71169002    0.00000000    0.08650000
opls_145-45    C    0.37784004    0.68436015    0.00000000    -0.07710000
opls_145-46    C    0.34338988    0.56617000    0.00000000    -0.07080000
opls_145-47    C    0.36113014    0.53931009    0.00000000    -0.12680000
opls_145-48    C    0.40595004    0.55696018    0.00000000    0.23540000
opls_145-49    C    0.43258014    0.60161001    0.00000000    -0.10540000
opls_145-50    C    0.41481987    0.62845995    0.00000000    -0.07090000
opls_700-51    C    0.37003011    0.61104998    0.00000000    0.07730000
opls_142-52    C    0.40294999    0.48871989    0.00000000    0.09400000
opls_700-53    C    0.65597992    0.28983011    0.00000000    0.08980000
opls_145-54    C    0.62365981    0.30088987    0.00000000    -0.07720000
opls_145-55    C    0.60957997    0.39841989    0.00000000    -0.07080000
opls_145-56    C    0.57706017    0.40899008    0.00000000    -0.12680000
opls_145-57    C    0.53368996    0.37645017    0.00000000    0.23550000
opls_145-58    C    0.52340012    0.33343009    0.00000000    -0.10540000
opls_145-59    C    0.55592992    0.32286987    0.00000000    -0.07090000
opls_700-60    C    0.59938007    0.35524004    0.00000000    0.07730000
opls_142-61    C    0.50624012    0.42513997    0.00000000    0.04120000
opls_567-62    C    0.03879997    0.57586006    0.00000000    -0.01800000
opls_716-63    C    0.01770012    0.59902010    0.00000000    -0.13210000
opls_716-64    C    0.97391014    0.57228009    0.00000000    -0.09930000
opls_567-65    C    0.96323991    0.52962999    0.00000000    -0.01800000
opls_750-66    N    0.46966007    0.89482015    0.00000000    -0.26840000
opls_750-67    N    0.61380008    0.11340990    0.00000000    -0.26830000
opls_750-68    N    0.10518002    0.57484010    0.00000000    -0.26840000
opls_750-69    N    0.88658993    0.50039008    0.00000000    -0.26830000
opls_750-70    N    0.42516007    0.53034007    0.00000000    -0.26840000
opls_750-71    N    0.49960999    0.38620003    0.00000000    -0.26840000
opls_633-72    S    0.47878988    0.48476993    0.00000000    0.09650000
opls_633-73    S    0.51523018    0.99402010    0.00000000    0.09660000
opls_633-74    S    0.00597994    0.52120997    0.00000000    0.09650000
opls_146-75    H    0.30150011    0.71571005    0.00000000    0.05100000
opls_146-76    H    0.44830989    0.75529000    0.00000000    0.05100000
opls_146-77    H    0.49710018    0.83630014    0.00000000    0.05100000
opls_146-78    H    0.38369014    0.85271008    0.00000000    0.05100000
opls_146-79    H    0.33512994    0.77186002    0.00000000    0.05100000
opls_144-80    H    0.52779005    0.89413996    0.00000000    0.03050000
opls_146-81    H    0.72538988    0.31377995    0.00000000    0.05100000
opls_146-82    H    0.57504014    0.21979004    0.00000000    0.05100000
opls_146-83    H    0.55583000    0.14152988    0.00000000    0.05100000
opls_146-84    H    0.69327006    0.18155985    0.00000000    0.05100000
opls_146-85    H    0.71229006    0.25961010    0.00000000    0.05100000
opls_144-86    H    0.54692996    0.08768984    0.00000000    0.03050000
opls_570-87    H    0.36433009    0.40122003    0.00000000    0.05100000
opls_570-88    H    0.41354987    0.36526988    0.00000000    0.05100000
opls_146-89    H    0.28428988    0.58578992    0.00000000    0.05100000
opls_146-90    H    0.24470997    0.69301997    0.00000000    0.05100000
opls_146-91    H    0.16370007    0.66079991    0.00000000    0.05100000
opls_146-92    H    0.14728995    0.53098007    0.00000000    0.05100000
opls_146-93    H    0.22813985    0.56326989    0.00000000    0.05110000
opls_144-94    H    0.10586010    0.63365006    0.00000000    0.03050000
opls_146-95    H    0.68621990    0.41160988    0.00000000    0.05100000
opls_146-96    H    0.78021006    0.35525001    0.00000000    0.05100000
opls_146-97    H    0.85847013    0.41430008    0.00000000    0.05100000
opls_146-98    H    0.81844006    0.51170988    0.00000000    0.05100000
opls_146-99    H    0.74038999    0.45268006    0.00000000    0.05100000
opls_144-100    H    0.91230999    0.45924018    0.00000000    0.03050000
opls_570-101    H    0.59877988    0.96310994    0.00000000    0.05100000
opls_570-102    H    0.63472992    0.04827995    0.00000000    0.05100000
opls_146-103    H    0.41421001    0.69850003    0.00000000    0.05100000
opls_146-104    H    0.30698015    0.55169003    0.00000000    0.05100000
opls_146-105    H    0.33920003    0.50289995    0.00000000    0.05100000
opls_146-106    H    0.46902007    0.61631016    0.00000000    0.05100000
opls_146-107    H    0.43672993    0.66487009    0.00000000    0.05100000
opls_144-108    H    0.36634986    0.47220998    0.00000000    0.03050000
opls_146-109    H    0.58839022    0.27461017    0.00000000    0.05110000
opls_146-110    H    0.64475008    0.42495996    0.00000000    0.05100000
opls_146-111    H    0.58570015    0.44417003    0.00000000    0.05100000
opls_146-112    H    0.48829000    0.30672994    0.00000000    0.05100000
opls_146-113    H    0.54732011    0.28771016    0.00000000    0.05100000
opls_144-114    H    0.54076006    0.45306998    0.00000000    0.03050000
opls_570-115    H    0.03689002    0.63567004    0.00000000    0.05100000
opls_570-116    H    0.95172021    0.58645018    0.00000000    0.05100000
