#======================================================================
# Crystal Data Generated By AuToFF
#----------------------------------------------------------------------

data_AuToFF_phase_1

_cell_length_a                         29.4089
_cell_length_b                         29.4089
_cell_length_c                         7.7431
_cell_angle_alpha                      90.00
_cell_angle_beta                       90.00
_cell_angle_gamma                      90.00
_symmetry_space_group_name_H-M_alt     'P 1'
_symmetry_space_group_IT_number        1

loop_
_space_group_symop_operation_xyz
   'x, y, z'

loop_
   _atom_site_label
   _atom_site_type_symbol
   _atom_site_fract_x
   _atom_site_fract_y
   _atom_site_fract_z
   _atom_site_charge
opls_145-0    C    0.81064984    0.98625008    0.74789038    0.21630000
opls_145-1    C    0.79581997    0.04052005    0.69059937    -0.11540000
opls_145-2    C    0.77194999    0.04585993    0.54423035    -0.09400000
opls_700-3    C    0.76270007    0.99720017    0.45253064    0.09720000
opls_145-4    C    0.77777986    0.94309988    0.51052033    -0.08550000
opls_145-5    C    0.80161992    0.93773007    0.65692035    -0.12120000
opls_142-6    C    0.84367997    0.02125003    0.99141042    0.03490000
opls_700-7    C    0.87483007    0.01298008    0.13568984    0.09710000
opls_142-8    C    0.89948009    0.95996008    0.17178004    -0.07890000
opls_142-9    C    0.93597006    0.95495989    0.29792977    -0.08320000
opls_261-10    C    0.94824016    0.00266994    0.39137038    0.10820000
opls_261-11    C    0.92154008    0.05519010    0.35669047    -0.07950000
opls_142-12    C    0.88493007    0.06021000    0.23041030    -0.08560000
opls_145-13    C    0.31064984    0.48625008    0.24789038    0.21630000
opls_145-14    C    0.29581997    0.54052005    0.19059937    -0.11540000
opls_145-15    C    0.27194999    0.54585993    0.04423035    -0.09400000
opls_700-16    C    0.26270007    0.49720017    0.95253064    0.09720000
opls_145-17    C    0.27777986    0.44309988    0.01052033    -0.08550000
opls_145-18    C    0.30161992    0.43773007    0.15692035    -0.12130000
opls_142-19    C    0.34367997    0.52125003    0.49141042    0.03490000
opls_700-20    C    0.37483007    0.51298008    0.63568984    0.09710000
opls_142-21    C    0.39948009    0.45996008    0.67178004    -0.07880000
opls_142-22    C    0.43597006    0.45495989    0.79792977    -0.08320000
opls_261-23    C    0.44824016    0.50266994    0.89137038    0.10820000
opls_261-24    C    0.42154008    0.55519010    0.85669047    -0.07950000
opls_142-25    C    0.38493007    0.56021000    0.73041030    -0.08560000
opls_145-26    C    0.68935016    0.51374992    0.24789038    0.21640000
opls_145-27    C    0.70418003    0.45947995    0.19059937    -0.11540000
opls_145-28    C    0.72805001    0.45414007    0.04423035    -0.09400000
opls_700-29    C    0.73729993    0.50279983    0.95253064    0.09720000
opls_145-30    C    0.72222014    0.55690012    0.01052033    -0.08550000
opls_145-31    C    0.69838008    0.56226993    0.15692035    -0.12130000
opls_142-32    C    0.65632003    0.47874997    0.49141042    0.03490000
opls_700-33    C    0.62516993    0.48701992    0.63568984    0.09710000
opls_142-34    C    0.60051991    0.54003992    0.67178004    -0.07890000
opls_142-35    C    0.56402994    0.54504011    0.79792977    -0.08320000
opls_261-36    C    0.55175984    0.49733006    0.89137038    0.10830000
opls_261-37    C    0.57845992    0.44480990    0.85669047    -0.07950000
opls_142-38    C    0.61506993    0.43979000    0.73041030    -0.08560000
opls_145-39    C    0.18935016    0.01374992    0.74789038    0.21640000
opls_145-40    C    0.20418003    0.95947995    0.69059937    -0.11540000
opls_145-41    C    0.22805001    0.95414007    0.54423035    -0.09400000
opls_700-42    C    0.23729993    0.00279983    0.45253064    0.09720000
opls_145-43    C    0.22222014    0.05690012    0.51052033    -0.08550000
opls_145-44    C    0.19838008    0.06226993    0.65692035    -0.12130000
opls_142-45    C    0.15632003    0.97874997    0.99141042    0.03490000
opls_700-46    C    0.12516993    0.98701992    0.13568984    0.09710000
opls_142-47    C    0.10051991    0.04003992    0.17178004    -0.07890000
opls_142-48    C    0.06402994    0.04504011    0.29792977    -0.08320000
opls_261-49    C    0.05175984    0.99733006    0.39137038    0.10820000
opls_261-50    C    0.07845992    0.94480990    0.35669047    -0.07940000
opls_142-51    C    0.11506993    0.93979000    0.23041030    -0.08560000
opls_145-52    C    0.01374992    0.31064984    0.99788973    0.21630000
opls_145-53    C    0.95947995    0.29581997    0.94060002    -0.11540000
opls_145-54    C    0.95414007    0.27194999    0.79422970    -0.09400000
opls_700-55    C    0.00279983    0.26270007    0.70252999    0.09720000
opls_145-56    C    0.05690012    0.27777986    0.76051969    -0.08560000
opls_145-57    C    0.06226993    0.30161992    0.90691971    -0.12130000
opls_142-58    C    0.97874997    0.34367997    0.24140977    0.03490000
opls_700-59    C    0.98701992    0.37483007    0.38569049    0.09710000
opls_142-60    C    0.04003992    0.39948009    0.42177939    -0.07890000
opls_142-61    C    0.04504011    0.43597006    0.54793042    -0.08320000
opls_261-62    C    0.99733006    0.44824016    0.64136974    0.10820000
opls_261-63    C    0.94480990    0.42154008    0.60668983    -0.07950000
opls_142-64    C    0.93979000    0.38493007    0.48040966    -0.08560000
opls_145-65    C    0.51374992    0.81064984    0.49788973    0.21650000
opls_145-66    C    0.45947995    0.79581997    0.44060002    -0.11540000
opls_145-67    C    0.45414007    0.77194999    0.29422970    -0.09400000
opls_700-68    C    0.50279983    0.76270007    0.20252999    0.09720000
opls_145-69    C    0.55690012    0.77777986    0.26051969    -0.08560000
opls_145-70    C    0.56226993    0.80161992    0.40691971    -0.12130000
opls_142-71    C    0.47874997    0.84367997    0.74140977    0.03490000
opls_700-72    C    0.48701992    0.87483007    0.88569049    0.09710000
opls_142-73    C    0.54003992    0.89948009    0.92177939    -0.07890000
opls_142-74    C    0.54504011    0.93597006    0.04793042    -0.08320000
opls_261-75    C    0.49733006    0.94824016    0.14136974    0.10820000
opls_261-76    C    0.44480990    0.92154008    0.10668983    -0.07950000
opls_142-77    C    0.43979000    0.88493007    0.98040966    -0.08560000
opls_145-78    C    0.48625008    0.18935016    0.49788973    0.21630000
opls_145-79    C    0.54052005    0.20418003    0.44060002    -0.11540000
opls_145-80    C    0.54585993    0.22805001    0.29422970    -0.09400000
opls_700-81    C    0.49720017    0.23729993    0.20252999    0.09730000
opls_145-82    C    0.44309988    0.22222014    0.26051969    -0.08560000
opls_145-83    C    0.43773007    0.19838008    0.40691971    -0.12130000
opls_142-84    C    0.52125003    0.15632003    0.74140977    0.03490000
opls_700-85    C    0.51298008    0.12516993    0.88569049    0.09710000
opls_142-86    C    0.45996008    0.10051991    0.92177939    -0.07890000
opls_142-87    C    0.45495989    0.06402994    0.04793042    -0.08320000
opls_261-88    C    0.50266994    0.05175984    0.14136974    0.10820000
opls_261-89    C    0.55519010    0.07845992    0.10668983    -0.07950000
opls_142-90    C    0.56021000    0.11506993    0.98040966    -0.08560000
opls_145-91    C    0.98625008    0.68935016    0.99788973    0.21630000
opls_145-92    C    0.04052005    0.70418003    0.94060002    -0.11540000
opls_145-93    C    0.04585993    0.72805001    0.79422970    -0.09400000
opls_700-94    C    0.99720017    0.73729993    0.70252999    0.09720000
opls_145-95    C    0.94309988    0.72222014    0.76051969    -0.08560000
opls_145-96    C    0.93773007    0.69838008    0.90691971    -0.12130000
opls_142-97    C    0.02125003    0.65632003    0.24140977    0.03490000
opls_700-98    C    0.01298008    0.62516993    0.38569049    0.09720000
opls_142-99    C    0.95996008    0.60051991    0.42177939    -0.07890000
opls_142-100    C    0.95495989    0.56402994    0.54793042    -0.08320000
opls_261-101    C    0.00266994    0.55175984    0.64136974    0.10820000
opls_261-102    C    0.05519010    0.57845992    0.60668983    -0.07950000
opls_142-103    C    0.06021000    0.61506993    0.48040966    -0.08560000
opls_145-104    C    0.18935016    0.51374992    0.50211027    0.21630000
opls_145-105    C    0.20418003    0.45947995    0.55939998    -0.11540000
opls_145-106    C    0.22805001    0.45414007    0.70577030    -0.09400000
opls_700-107    C    0.23729993    0.50279983    0.79747001    0.09720000
opls_145-108    C    0.22222014    0.55690012    0.73948031    -0.08560000
opls_145-109    C    0.19838008    0.56226993    0.59308029    -0.12130000
opls_142-110    C    0.15632003    0.47874997    0.25859023    0.03490000
opls_700-111    C    0.12516993    0.48701992    0.11430951    0.09710000
opls_142-112    C    0.10051991    0.54003992    0.07822061    -0.07880000
opls_142-113    C    0.06402994    0.54504011    0.95206958    -0.08320000
opls_261-114    C    0.05175984    0.49733006    0.85863026    0.10830000
opls_261-115    C    0.07845992    0.44480990    0.89331017    -0.07950000
opls_142-116    C    0.11506993    0.43979000    0.01959034    -0.08560000
opls_145-117    C    0.68935016    0.01374992    0.00211027    0.21630000
opls_145-118    C    0.70418003    0.95947995    0.05939998    -0.11540000
opls_145-119    C    0.72805001    0.95414007    0.20577030    -0.09390000
opls_700-120    C    0.73729993    0.00279983    0.29747001    0.09720000
opls_145-121    C    0.72222014    0.05690012    0.23948031    -0.08560000
opls_145-122    C    0.69838008    0.06226993    0.09308029    -0.12130000
opls_142-123    C    0.65632003    0.97874997    0.75859023    0.03490000
opls_700-124    C    0.62516993    0.98701992    0.61430951    0.09710000
opls_142-125    C    0.60051991    0.04003992    0.57822061    -0.07890000
opls_142-126    C    0.56402994    0.04504011    0.45206958    -0.08320000
opls_261-127    C    0.55175984    0.99733006    0.35863026    0.10820000
opls_261-128    C    0.57845992    0.94480990    0.39331017    -0.07950000
opls_142-129    C    0.61506993    0.93979000    0.51959034    -0.08560000
opls_145-130    C    0.31064984    0.98625008    0.00211027    0.21640000
opls_145-131    C    0.29581997    0.04052005    0.05939998    -0.11530000
opls_145-132    C    0.27194999    0.04585993    0.20577030    -0.09400000
opls_700-133    C    0.26270007    0.99720017    0.29747001    0.09720000
opls_145-134    C    0.27777986    0.94309988    0.23948031    -0.08560000
opls_145-135    C    0.30161992    0.93773007    0.09308029    -0.12130000
opls_142-136    C    0.34367997    0.02125003    0.75859023    0.03510000
opls_700-137    C    0.37483007    0.01298008    0.61430951    0.09720000
opls_142-138    C    0.39948009    0.95996008    0.57822061    -0.07890000
opls_142-139    C    0.43597006    0.95495989    0.45206958    -0.08320000
opls_261-140    C    0.44824016    0.00266994    0.35863026    0.10820000
opls_261-141    C    0.42154008    0.05519010    0.39331017    -0.07950000
opls_142-142    C    0.38493007    0.06021000    0.51959034    -0.08560000
opls_145-143    C    0.81064984    0.48625008    0.50211027    0.21650000
opls_145-144    C    0.79581997    0.54052005    0.55939998    -0.11540000
opls_145-145    C    0.77194999    0.54585993    0.70577030    -0.09400000
opls_700-146    C    0.76270007    0.49720017    0.79747001    0.09720000
opls_145-147    C    0.77777986    0.44309988    0.73948031    -0.08560000
opls_145-148    C    0.80161992    0.43773007    0.59308029    -0.12130000
opls_142-149    C    0.84367997    0.52125003    0.25859023    0.03490000
opls_700-150    C    0.87483007    0.51298008    0.11430951    0.09710000
opls_142-151    C    0.89948009    0.45996008    0.07822061    -0.07890000
opls_142-152    C    0.93597006    0.45495989    0.95206958    -0.08320000
opls_261-153    C    0.94824016    0.50266994    0.85863026    0.10820000
opls_261-154    C    0.92154008    0.55519010    0.89331017    -0.07950000
opls_142-155    C    0.88493007    0.56021000    0.01959034    -0.08560000
opls_145-156    C    0.98625008    0.18935016    0.25210962    0.21630000
opls_145-157    C    0.04052005    0.20418003    0.30940063    -0.11540000
opls_145-158    C    0.04585993    0.22805001    0.45576965    -0.09400000
opls_700-159    C    0.99720017    0.23729993    0.54746936    0.09720000
opls_145-160    C    0.94309988    0.22222014    0.48947967    -0.08560000
opls_145-161    C    0.93773007    0.19838008    0.34307965    -0.12130000
opls_142-162    C    0.02125003    0.15632003    0.00858958    0.03490000
opls_700-163    C    0.01298008    0.12516993    0.86431016    0.09720000
opls_142-164    C    0.95996008    0.10051991    0.82821996    -0.07890000
opls_142-165    C    0.95495989    0.06402994    0.70207023    -0.08320000
opls_261-166    C    0.00266994    0.05175984    0.60862962    0.10830000
opls_261-167    C    0.05519010    0.07845992    0.64330953    -0.07950000
opls_142-168    C    0.06021000    0.11506993    0.76958970    -0.08560000
opls_145-169    C    0.48625008    0.68935016    0.75210962    0.21630000
opls_145-170    C    0.54052005    0.70418003    0.80940063    -0.11530000
opls_145-171    C    0.54585993    0.72805001    0.95576965    -0.09390000
opls_700-172    C    0.49720017    0.73729993    0.04746936    0.09720000
opls_145-173    C    0.44309988    0.72222014    0.98947967    -0.08560000
opls_145-174    C    0.43773007    0.69838008    0.84307965    -0.12130000
opls_142-175    C    0.52125003    0.65632003    0.50858958    0.03490000
opls_700-176    C    0.51298008    0.62516993    0.36431016    0.09710000
opls_142-177    C    0.45996008    0.60051991    0.32821996    -0.07890000
opls_142-178    C    0.45495989    0.56402994    0.20207023    -0.08300000
opls_261-179    C    0.50266994    0.55175984    0.10862962    0.10830000
opls_261-180    C    0.55519010    0.57845992    0.14330953    -0.07950000
opls_142-181    C    0.56021000    0.61506993    0.26958970    -0.08560000
opls_145-182    C    0.51374992    0.31064984    0.75210962    0.21630000
opls_145-183    C    0.45947995    0.29581997    0.80940063    -0.11540000
opls_145-184    C    0.45414007    0.27194999    0.95576965    -0.09400000
opls_700-185    C    0.50279983    0.26270007    0.04746936    0.09720000
opls_145-186    C    0.55690012    0.27777986    0.98947967    -0.08560000
opls_145-187    C    0.56226993    0.30161992    0.84307965    -0.12130000
opls_142-188    C    0.47874997    0.34367997    0.50858958    0.03500000
opls_700-189    C    0.48701992    0.37483007    0.36431016    0.09710000
opls_142-190    C    0.54003992    0.39948009    0.32821996    -0.07890000
opls_142-191    C    0.54504011    0.43597006    0.20207023    -0.08320000
opls_261-192    C    0.49733006    0.44824016    0.10862962    0.10830000
opls_261-193    C    0.44480990    0.42154008    0.14330953    -0.07940000
opls_142-194    C    0.43979000    0.38493007    0.26958970    -0.08550000
opls_145-195    C    0.01374992    0.81064984    0.25210962    0.21630000
opls_145-196    C    0.95947995    0.79581997    0.30940063    -0.11540000
opls_145-197    C    0.95414007    0.77194999    0.45576965    -0.09400000
opls_700-198    C    0.00279983    0.76270007    0.54746936    0.09720000
opls_145-199    C    0.05690012    0.77777986    0.48947967    -0.08560000
opls_145-200    C    0.06226993    0.80161992    0.34307965    -0.12120000
opls_142-201    C    0.97874997    0.84367997    0.00858958    0.03490000
opls_700-202    C    0.98701992    0.87483007    0.86431016    0.09720000
opls_142-203    C    0.04003992    0.89948009    0.82821996    -0.07890000
opls_142-204    C    0.04504011    0.93597006    0.70207023    -0.08320000
opls_261-205    C    0.99733006    0.94824016    0.60862962    0.10820000
opls_261-206    C    0.94480990    0.92154008    0.64330953    -0.07950000
opls_142-207    C    0.93979000    0.88493007    0.76958970    -0.08560000
opls_139-208    C    0.00000000    0.00000000    0.50000000    0.05420000
opls_139-209    C    0.50000000    0.50000000    0.00000000    0.05420000
opls_139-210    C    0.00000000    0.50000000    0.74999935    0.05420000
opls_139-211    C    0.50000000    0.00000000    0.25000065    0.05430000
opls_750-212    N    0.83729993    0.97950008    0.89472046    -0.23740000
opls_750-213    N    0.33729993    0.47950008    0.39472046    -0.23740000
opls_750-214    N    0.66270007    0.52049992    0.39472046    -0.23750000
opls_750-215    N    0.16270007    0.02049992    0.89472046    -0.23740000
opls_750-216    N    0.02049992    0.33729993    0.14471982    -0.23750000
opls_750-217    N    0.52049992    0.83729993    0.64471982    -0.23750000
opls_750-218    N    0.47950008    0.16270007    0.64471982    -0.23740000
opls_750-219    N    0.97950008    0.66270007    0.14471982    -0.23750000
opls_750-220    N    0.16270007    0.52049992    0.35528018    -0.23750000
opls_750-221    N    0.66270007    0.02049992    0.85528018    -0.23750000
opls_750-222    N    0.33729993    0.97950008    0.85528018    -0.23750000
opls_750-223    N    0.83729993    0.47950008    0.35528018    -0.23750000
opls_750-224    N    0.97950008    0.16270007    0.10527954    -0.23750000
opls_750-225    N    0.47950008    0.66270007    0.60527954    -0.23750000
opls_750-226    N    0.52049992    0.33729993    0.60527954    -0.23720000
opls_750-227    N    0.02049992    0.83729993    0.10527954    -0.23750000
opls_146-228    H    0.80547997    0.07111997    0.77137968    0.04630000
opls_146-229    H    0.76126003    0.08097005    0.50129018    0.04730000
opls_146-230    H    0.76752990    0.91345987    0.42567964    0.04630000
opls_146-231    H    0.81232994    0.90263016    0.69973008    0.04720000
opls_144-232    H    0.82890009    0.05624998    0.97101032    0.03830000
opls_144-233    H    0.88710016    0.92932990    0.09694050    0.04740000
opls_144-234    H    0.95517003    0.92311987    0.33418011    0.04730000
MOF2_H_-235    H    0.93267990    0.08603994    0.43313014    0.04630000
opls_144-236    H    0.86810999    0.09432995    0.21154964    0.04720000
opls_146-237    H    0.30547997    0.57111997    0.27137968    0.04630000
opls_146-238    H    0.26126003    0.58097005    0.00129018    0.04720000
opls_146-239    H    0.26752990    0.41345987    0.92567964    0.04630000
opls_146-240    H    0.31232994    0.40263016    0.19973008    0.04720000
opls_144-241    H    0.32890009    0.55624998    0.47101032    0.03830000
opls_144-242    H    0.38710016    0.42932990    0.59694050    0.04740000
opls_144-243    H    0.45517003    0.42311987    0.83418011    0.04720000
MOF2_H_-244    H    0.43267990    0.58603994    0.93313014    0.04630000
opls_144-245    H    0.36810999    0.59432995    0.71154964    0.04720000
opls_146-246    H    0.69452003    0.42888003    0.27137968    0.04630000
opls_146-247    H    0.73873997    0.41902995    0.00129018    0.04720000
opls_146-248    H    0.73247010    0.58654013    0.92567964    0.04630000
opls_146-249    H    0.68767006    0.59736984    0.19973008    0.04720000
opls_144-250    H    0.67109991    0.44375002    0.47101032    0.03830000
opls_144-251    H    0.61289984    0.57067010    0.59694050    0.04740000
opls_144-252    H    0.54482997    0.57688013    0.83418011    0.04720000
MOF2_H_-253    H    0.56732010    0.41396006    0.93313014    0.04630000
opls_144-254    H    0.63189001    0.40567005    0.71154964    0.04720000
opls_146-255    H    0.19452003    0.92888003    0.77137968    0.04630000
opls_146-256    H    0.23873997    0.91902995    0.50129018    0.04720000
opls_146-257    H    0.23247010    0.08654013    0.42567964    0.04640000
opls_146-258    H    0.18767006    0.09736984    0.69973008    0.04720000
opls_144-259    H    0.17109991    0.94375002    0.97101032    0.03830000
opls_144-260    H    0.11289984    0.07067010    0.09694050    0.04740000
opls_144-261    H    0.04482997    0.07688013    0.33418011    0.04720000
MOF2_H_-262    H    0.06732010    0.91396006    0.43313014    0.04630000
opls_144-263    H    0.13189001    0.90567005    0.21154964    0.04720000
opls_146-264    H    0.92888003    0.30547997    0.02138033    0.04630000
opls_146-265    H    0.91902995    0.26126003    0.75128954    0.04720000
opls_146-266    H    0.08654013    0.26752990    0.67568028    0.04630000
opls_146-267    H    0.09736984    0.31232994    0.94972944    0.04720000
opls_144-268    H    0.94375002    0.32890009    0.22100967    0.03830000
opls_144-269    H    0.07067010    0.38710016    0.34693986    0.04740000
opls_144-270    H    0.07688013    0.45517003    0.58417946    0.04720000
MOF2_H_-271    H    0.91396006    0.43267990    0.68312950    0.04630000
opls_144-272    H    0.90567005    0.36810999    0.46155028    0.04720000
opls_146-273    H    0.42888003    0.80547997    0.52138033    0.04630000
opls_146-274    H    0.41902995    0.76126003    0.25128954    0.04720000
opls_146-275    H    0.58654013    0.76752990    0.17568028    0.04630000
opls_146-276    H    0.59736984    0.81232994    0.44972944    0.04720000
opls_144-277    H    0.44375002    0.82890009    0.72100967    0.03830000
opls_144-278    H    0.57067010    0.88710016    0.84693986    0.04740000
opls_144-279    H    0.57688013    0.95517003    0.08417946    0.04720000
MOF2_H_-280    H    0.41396006    0.93267990    0.18312950    0.04630000
opls_144-281    H    0.40567005    0.86810999    0.96155028    0.04720000
opls_146-282    H    0.57111997    0.19452003    0.52138033    0.04630000
opls_146-283    H    0.58097005    0.23873997    0.25128954    0.04730000
opls_146-284    H    0.41345987    0.23247010    0.17568028    0.04630000
opls_146-285    H    0.40263016    0.18767006    0.44972944    0.04720000
opls_144-286    H    0.55624998    0.17109991    0.72100967    0.03830000
opls_144-287    H    0.42932990    0.11289984    0.84693986    0.04740000
opls_144-288    H    0.42311987    0.04482997    0.08417946    0.04720000
MOF2_H_-289    H    0.58603994    0.06732010    0.18312950    0.04630000
opls_144-290    H    0.59432995    0.13189001    0.96155028    0.04720000
opls_146-291    H    0.07111997    0.69452003    0.02138033    0.04630000
opls_146-292    H    0.08097005    0.73873997    0.75128954    0.04720000
opls_146-293    H    0.91345987    0.73247010    0.67568028    0.04630000
opls_146-294    H    0.90263016    0.68767006    0.94972944    0.04720000
opls_144-295    H    0.05624998    0.67109991    0.22100967    0.03830000
opls_144-296    H    0.92932990    0.61289984    0.34693986    0.04740000
opls_144-297    H    0.92311987    0.54482997    0.58417946    0.04720000
MOF2_H_-298    H    0.08603994    0.56732010    0.68312950    0.04640000
opls_144-299    H    0.09432995    0.63189001    0.46155028    0.04720000
opls_146-300    H    0.19452003    0.42888003    0.47861967    0.04630000
opls_146-301    H    0.23873997    0.41902995    0.74871046    0.04720000
opls_146-302    H    0.23247010    0.58654013    0.82431972    0.04630000
opls_146-303    H    0.18767006    0.59736984    0.55027056    0.04720000
opls_144-304    H    0.17109991    0.44375002    0.27899033    0.03830000
opls_144-305    H    0.11289984    0.57067010    0.15306014    0.04740000
opls_144-306    H    0.04482997    0.57688013    0.91582054    0.04720000
MOF2_H_-307    H    0.06732010    0.41396006    0.81687050    0.04630000
opls_144-308    H    0.13189001    0.40567005    0.03844972    0.04720000
opls_146-309    H    0.69452003    0.92888003    0.97861967    0.04630000
opls_146-310    H    0.73873997    0.91902995    0.24871046    0.04720000
opls_146-311    H    0.73247010    0.08654013    0.32431972    0.04630000
opls_146-312    H    0.68767006    0.09736984    0.05027056    0.04720000
opls_144-313    H    0.67109991    0.94375002    0.77899033    0.03830000
opls_144-314    H    0.61289984    0.07067010    0.65306014    0.04740000
opls_144-315    H    0.54482997    0.07688013    0.41582054    0.04720000
MOF2_H_-316    H    0.56732010    0.91396006    0.31687050    0.04630000
opls_144-317    H    0.63189001    0.90567005    0.53844972    0.04720000
opls_146-318    H    0.30547997    0.07111997    0.97861967    0.04630000
opls_146-319    H    0.26126003    0.08097005    0.24871046    0.04720000
opls_146-320    H    0.26752990    0.91345987    0.32431972    0.04630000
opls_146-321    H    0.31232994    0.90263016    0.05027056    0.04730000
opls_144-322    H    0.32890009    0.05624998    0.77899033    0.03830000
opls_144-323    H    0.38710016    0.92932990    0.65306014    0.04740000
opls_144-324    H    0.45517003    0.92311987    0.41582054    0.04720000
MOF2_H_-325    H    0.43267990    0.08603994    0.31687050    0.04630000
opls_144-326    H    0.36810999    0.09432995    0.53844972    0.04720000
opls_146-327    H    0.80547997    0.57111997    0.47861967    0.04630000
opls_146-328    H    0.76126003    0.58097005    0.74871046    0.04720000
opls_146-329    H    0.76752990    0.41345987    0.82431972    0.04630000
opls_146-330    H    0.81232994    0.40263016    0.55027056    0.04720000
opls_144-331    H    0.82890009    0.55624998    0.27899033    0.03830000
opls_144-332    H    0.88710016    0.42932990    0.15306014    0.04740000
opls_144-333    H    0.95517003    0.42311987    0.91582054    0.04730000
MOF2_H_-334    H    0.93267990    0.58603994    0.81687050    0.04640000
opls_144-335    H    0.86810999    0.59432995    0.03844972    0.04720000
opls_146-336    H    0.07111997    0.19452003    0.22862032    0.04630000
opls_146-337    H    0.08097005    0.23873997    0.49870982    0.04720000
opls_146-338    H    0.91345987    0.23247010    0.57432036    0.04630000
opls_146-339    H    0.90263016    0.18767006    0.30026992    0.04720000
opls_144-340    H    0.05624998    0.17109991    0.02898968    0.03830000
opls_144-341    H    0.92932990    0.11289984    0.90305950    0.04740000
opls_144-342    H    0.92311987    0.04482997    0.66581989    0.04720000
MOF2_H_-343    H    0.08603994    0.06732010    0.56686986    0.04630000
opls_144-344    H    0.09432995    0.13189001    0.78845036    0.04720000
opls_146-345    H    0.57111997    0.69452003    0.72862032    0.04630000
opls_146-346    H    0.58097005    0.73873997    0.99870982    0.04720000
opls_146-347    H    0.41345987    0.73247010    0.07432036    0.04640000
opls_146-348    H    0.40263016    0.68767006    0.80026992    0.04720000
opls_144-349    H    0.55624998    0.67109991    0.52898968    0.03830000
opls_144-350    H    0.42932990    0.61289984    0.40305950    0.04740000
opls_144-351    H    0.42311987    0.54482997    0.16581989    0.04720000
MOF2_H_-352    H    0.58603994    0.56732010    0.06686986    0.04630000
opls_144-353    H    0.59432995    0.63189001    0.28845036    0.04720000
opls_146-354    H    0.42888003    0.30547997    0.72862032    0.04630000
opls_146-355    H    0.41902995    0.26126003    0.99870982    0.04720000
opls_146-356    H    0.58654013    0.26752990    0.07432036    0.04630000
opls_146-357    H    0.59736984    0.31232994    0.80026992    0.04730000
opls_144-358    H    0.44375002    0.32890009    0.52898968    0.03830000
opls_144-359    H    0.57067010    0.38710016    0.40305950    0.04740000
opls_144-360    H    0.57688013    0.45517003    0.16581989    0.04720000
MOF2_H_-361    H    0.41396006    0.43267990    0.06686986    0.04630000
opls_144-362    H    0.40567005    0.36810999    0.28845036    0.04720000
opls_146-363    H    0.92888003    0.80547997    0.22862032    0.04630000
opls_146-364    H    0.91902995    0.76126003    0.49870982    0.04730000
opls_146-365    H    0.08654013    0.76752990    0.57432036    0.04630000
opls_146-366    H    0.09736984    0.81232994    0.30026992    0.04720000
opls_144-367    H    0.94375002    0.82890009    0.02898968    0.03830000
opls_144-368    H    0.07067010    0.88710016    0.90305950    0.04740000
opls_144-369    H    0.07688013    0.95517003    0.66581989    0.04720000
MOF2_H_-370    H    0.91396006    0.93267990    0.56686986    0.04630000
opls_144-371    H    0.90567005    0.86810999    0.78845036    0.04720000
