#======================================================================
# Crystal Data Generated By AuToFF
#----------------------------------------------------------------------

data_AuToFF_phase_1

_cell_length_a                         25.2500
_cell_length_b                         25.2500
_cell_length_c                         4.0279
_cell_angle_alpha                      90.00
_cell_angle_beta                       90.00
_cell_angle_gamma                      90.00
_symmetry_space_group_name_H-M_alt     'P 1'
_symmetry_space_group_IT_number        1

loop_
_space_group_symop_operation_xyz
   'x, y, z'

loop_
   _atom_site_label
   _atom_site_type_symbol
   _atom_site_fract_x
   _atom_site_fract_y
   _atom_site_fract_z
   _atom_site_charge
opls_542-0    N    0.05548000    0.05624990    0.99326945    -0.30540000
opls_239-1    N    0.36176000    0.00135010    0.01019886    -0.08090000
opls_542-2    N    0.94452000    0.94375010    0.99326945    -0.30540000
opls_239-3    N    0.63824000    0.99864990    0.01019886    -0.08090000
opls_542-4    N    0.05624990    0.94452000    0.00673055    -0.30540000
opls_239-5    N    0.00135010    0.63824000    0.98980114    -0.08090000
opls_542-6    N    0.94375010    0.05548000    0.00673055    -0.30540000
opls_239-7    N    0.99864990    0.36176000    0.98980114    -0.08090000
opls_507-8    C    0.04692990    0.10833980    0.93461109    0.17470000
opls_716-9    C    0.09320990    0.13268990    0.83221033    -0.21000000
opls_523-10    C    0.22236990    0.03992990    0.17925966    -0.13980000
opls_522-11    C    0.27740000    0.04069980    0.17699049    -0.18490000
opls_521-12    C    0.38875010    0.04460990    0.89818019    0.06160000
opls_522-13    C    0.44374020    0.04483010    0.89831922    -0.16140000
opls_700-14    C    0.13511010    0.00093980    0.00019117    -0.08020000
opls_700-15    C    0.19427010    0.00135010    0.00047916    0.06450000
opls_521-16    C    0.30533980    0.00157980    0.00515902    0.16260000
opls_700-17    C    0.47101980    0.00037980    0.01569056    0.08070000
opls_522-18    C    0.44267010    0.95655010    0.13159959    -0.18670000
opls_521-19    C    0.38772000    0.95774020    0.12618983    0.04590000
opls_522-20    C    0.27791010    0.96244990    0.83012984    -0.18140000
opls_523-21    C    0.22291010    0.96303010    0.82293006    -0.14010000
opls_507-22    C    0.89231010    0.95156990    0.93492887    0.17420000
opls_716-23    C    0.86859010    0.90496990    0.83259018    -0.21000000
opls_507-24    C    0.95307010    0.89165980    0.93461109    0.17470000
opls_716-25    C    0.90679010    0.86731010    0.83221033    -0.21000000
opls_523-26    C    0.77763010    0.96007010    0.17925966    -0.13980000
opls_522-27    C    0.72260000    0.95930020    0.17699049    -0.18490000
opls_521-28    C    0.61124990    0.95539010    0.89818019    0.06160000
opls_522-29    C    0.55625980    0.95516990    0.89831922    -0.16140000
opls_700-30    C    0.86488990    0.99906020    0.00019117    -0.08020000
opls_700-31    C    0.80572990    0.99864990    0.00047916    0.06450000
opls_521-32    C    0.69465980    0.99841980    0.00515902    0.16260000
opls_700-33    C    0.52898020    0.99961980    0.01569056    0.08070000
opls_522-34    C    0.55732990    0.04344990    0.13159959    -0.18670000
opls_521-35    C    0.61228000    0.04225980    0.12618983    0.04590000
opls_522-36    C    0.72208990    0.03755010    0.83012984    -0.18140000
opls_523-37    C    0.77708990    0.03696990    0.82293006    -0.14010000
opls_507-38    C    0.10768990    0.04843010    0.93492887    0.17420000
opls_716-39    C    0.13140990    0.09503010    0.83259018    -0.21000000
opls_507-40    C    0.10833980    0.95307010    0.06538891    0.17470000
opls_716-41    C    0.13268990    0.90679010    0.16778967    -0.21000000
opls_523-42    C    0.03992990    0.77763010    0.82074034    -0.13980000
opls_522-43    C    0.04069980    0.72260000    0.82300951    -0.18490000
opls_521-44    C    0.04460990    0.61124990    0.10181981    0.06160000
opls_522-45    C    0.04483010    0.55625980    0.10168078    -0.16140000
opls_700-46    C    0.00093980    0.86488990    0.99980883    -0.08020000
opls_700-47    C    0.00135010    0.80572990    0.99952084    0.06450000
opls_521-48    C    0.00157980    0.69465980    0.99484098    0.16260000
opls_700-49    C    0.00037980    0.52898020    0.98430944    0.08070000
opls_522-50    C    0.95655010    0.55732990    0.86840041    -0.18670000
opls_521-51    C    0.95774020    0.61228000    0.87381017    0.04590000
opls_522-52    C    0.96244990    0.72208990    0.16987016    -0.18140000
opls_523-53    C    0.96303010    0.77708990    0.17706994    -0.14010000
opls_507-54    C    0.95156990    0.10768990    0.06507113    0.17420000
opls_716-55    C    0.90496990    0.13140990    0.16740982    -0.20980000
opls_507-56    C    0.89165980    0.04692990    0.06538891    0.17470000
opls_716-57    C    0.86731010    0.09320990    0.16778967    -0.21000000
opls_523-58    C    0.96007010    0.22236990    0.82074034    -0.13980000
opls_522-59    C    0.95930020    0.27740000    0.82300951    -0.18490000
opls_521-60    C    0.95539010    0.38875010    0.10181981    0.06170000
opls_522-61    C    0.95516990    0.44374020    0.10168078    -0.16140000
opls_700-62    C    0.99906020    0.13511010    0.99980883    -0.08020000
opls_700-63    C    0.99864990    0.19427010    0.99952084    0.06450000
opls_521-64    C    0.99841980    0.30533980    0.99484098    0.16260000
opls_700-65    C    0.99961980    0.47101980    0.98430944    0.08070000
opls_522-66    C    0.04344990    0.44267010    0.86840041    -0.18670000
opls_521-67    C    0.04225980    0.38772000    0.87381017    0.04590000
opls_522-68    C    0.03755010    0.27791010    0.16987016    -0.18140000
opls_523-69    C    0.03696990    0.22291010    0.17706994    -0.14010000
opls_507-70    C    0.04843010    0.89231010    0.06507113    0.17420000
opls_716-71    C    0.09503010    0.86859010    0.16740982    -0.21000000
opls_547-72    H    0.17252000    0.10273980    0.78024032    0.08660000
opls_526-73    H    0.20174020    0.06991010    0.31708086    0.09120000
opls_525-74    H    0.29831010    0.07093980    0.31529085    0.11120000
opls_524-75    H    0.36775010    0.07889980    0.80395988    0.10180000
opls_525-76    H    0.46476990    0.07899010    0.80306115    0.10650000
opls_547-77    H    0.10036000    0.17388000    0.77932918    0.09450000
opls_525-78    H    0.46286020    0.92196000    0.22793019    0.10880000
opls_524-79    H    0.36589980    0.92376000    0.21707093    0.09110000
opls_525-80    H    0.29921980    0.93215010    0.69485091    0.11080000
opls_526-81    H    0.20269980    0.93291010    0.68374091    0.09120000
opls_547-82    H    0.82748000    0.89726020    0.78024032    0.08660000
opls_526-83    H    0.79826020    0.93008990    0.31708086    0.09120000
opls_525-84    H    0.70168990    0.92905980    0.31529085    0.11110000
opls_524-85    H    0.63224990    0.92109980    0.80395988    0.10180000
opls_525-86    H    0.53523010    0.92100990    0.80306115    0.10650000
opls_547-87    H    0.89964000    0.82612000    0.77932918    0.09450000
opls_525-88    H    0.53713980    0.07804000    0.22793019    0.10880000
opls_524-89    H    0.63410020    0.07624000    0.21707093    0.09110000
opls_525-90    H    0.70077980    0.06784990    0.69485091    0.11080000
opls_526-91    H    0.79729980    0.06708990    0.68374091    0.09120000
opls_547-92    H    0.10273980    0.82748000    0.21975968    0.08660000
opls_526-93    H    0.06991010    0.79826020    0.68291914    0.09120000
opls_525-94    H    0.07093980    0.70168990    0.68470915    0.11110000
opls_524-95    H    0.07889980    0.63224990    0.19604012    0.10180000
opls_525-96    H    0.07899010    0.53523010    0.19693885    0.10650000
opls_547-97    H    0.17388000    0.89964000    0.22067082    0.09450000
opls_525-98    H    0.92196000    0.53713980    0.77206981    0.10880000
opls_524-99    H    0.92376000    0.63410020    0.78292907    0.09110000
opls_525-100    H    0.93215010    0.70077980    0.30514909    0.11080000
opls_526-101    H    0.93291010    0.79729980    0.31625909    0.09120000
opls_547-102    H    0.89726020    0.17252000    0.21975968    0.08660000
opls_526-103    H    0.93008990    0.20174020    0.68291914    0.09120000
opls_525-104    H    0.92905980    0.29831010    0.68470915    0.11110000
opls_524-105    H    0.92109980    0.36775010    0.19604012    0.10180000
opls_525-106    H    0.92100990    0.46476990    0.19693885    0.10650000
opls_547-107    H    0.82612000    0.10036000    0.22067082    0.09450000
opls_525-108    H    0.07804000    0.46286020    0.77206981    0.10880000
opls_524-109    H    0.07624000    0.36589980    0.78292907    0.09110000
opls_525-110    H    0.06784990    0.29921980    0.30514909    0.11080000
opls_526-111    H    0.06708990    0.20269980    0.31625909    0.09120000
opls_401-112    Cl    0.59184990    0.16644990    0.68279004    0.12290000
opls_401-113    Cl    0.40815010    0.83355010    0.68279004    0.12290000
opls_401-114    Cl    0.16644990    0.40815010    0.31720996    0.12290000
opls_401-115    Cl    0.83355010    0.59184990    0.31720996    0.12290000
