#======================================================================
# Crystal Data Generated By AuToFF
#----------------------------------------------------------------------

data_AuToFF_phase_1

_cell_length_a                         18.6700
_cell_length_b                         18.6700
_cell_length_c                         3.6200
_cell_angle_alpha                      90.00
_cell_angle_beta                       90.00
_cell_angle_gamma                      120.00
_symmetry_space_group_name_H-M_alt     'P 1'
_symmetry_space_group_IT_number        1

loop_
_space_group_symop_operation_xyz
   'x, y, z'

loop_
   _atom_site_label
   _atom_site_type_symbol
   _atom_site_fract_x
   _atom_site_fract_y
   _atom_site_fract_z
   _atom_site_charge
opls_142-0    C    0.16192006    0.61461998    0.50000000    0.08840000
opls_142-1    C    0.38537980    0.54728985    0.50000000    0.08840000
opls_142-2    C    0.45271019    0.83808027    0.50000000    0.08840000
opls_145-3    C    0.97605990    0.41384985    0.50000000    -0.18490000
opls_145-4    C    0.58615014    0.56221994    0.50000000    -0.18410000
opls_145-5    C    0.43779008    0.02394010    0.50000000    -0.18410000
opls_145-6    C    0.89042018    0.37314031    0.50000000    -0.12950000
opls_145-7    C    0.62686001    0.51727011    0.50000000    -0.12780000
opls_145-8    C    0.48273029    0.10959020    0.50000000    -0.12950000
opls_145-9    C    0.56410991    0.01887970    0.50000000    -0.18760000
opls_145-10    C    0.98112025    0.54523032    0.50000000    -0.18650000
opls_145-11    C    0.45476984    0.43588998    0.50000000    -0.18650000
opls_145-12    C    0.60966006    0.10439992    0.50000000    -0.14140000
opls_145-13    C    0.89559993    0.50525986    0.50000000    -0.14140000
opls_145-14    C    0.49474001    0.39034022    0.50000000    -0.14140000
opls_700-15    C    0.39152021    0.75074047    0.50000000    0.05300000
opls_700-16    C    0.24926006    0.64078042    0.50000000    0.05460000
opls_700-17    C    0.35922035    0.60848034    0.50000000    0.05280000
opls_145-18    C    0.41750037    0.69289039    0.50000000    -0.21500000
opls_145-19    C    0.30711021    0.72461034    0.50000000    -0.21500000
opls_145-20    C    0.27538974    0.58249988    0.50000000    -0.21500000
opls_700-21    C    0.62001011    0.24569028    0.50000000    0.06300000
opls_700-22    C    0.75431016    0.37432037    0.50000000    0.06300000
opls_700-23    C    0.62568004    0.37998997    0.50000000    0.06300000
opls_145-24    C    0.47783013    0.97847012    0.50000000    0.19430000
opls_145-25    C    0.02153012    0.49936018    0.50000000    0.19430000
opls_145-26    C    0.50064006    0.52217032    0.50000000    0.19430000
opls_700-27    C    0.57043025    0.15263018    0.50000000    0.05690000
opls_700-28    C    0.84736978    0.41780008    0.50000000    0.05690000
opls_700-29    C    0.58220028    0.42957036    0.50000000    0.05690000
opls_145-30    C    0.58124023    0.29335030    0.50000000    -0.10070000
opls_145-31    C    0.70665005    0.28789036    0.50000000    -0.10070000
opls_145-32    C    0.71211003    0.41875996    0.50000000    -0.10070000
opls_750-33    N    0.10883016    0.53647018    0.50000000    -0.31680000
opls_750-34    N    0.46352972    0.57235991    0.50000000    -0.31680000
opls_750-35    N    0.42764043    0.89117053    0.50000000    -0.31670000
opls_146-36    H    0.00784980    0.37873013    0.50000000    0.10660000
opls_146-37    H    0.62126994    0.62913013    0.50000000    0.10660000
opls_146-38    H    0.37086999    0.99215026    0.50000000    0.10710000
opls_146-39    H    0.86110037    0.30693025    0.50000000    0.09750000
opls_146-40    H    0.69307022    0.55417044    0.50000000    0.09750000
opls_146-41    H    0.44582972    0.13889994    0.50000000    0.09750000
opls_146-42    H    0.59759014    0.98572983    0.50000000    0.09270000
opls_146-43    H    0.01427016    0.61185043    0.50000000    0.09210000
opls_146-44    H    0.38814975    0.40240984    0.50000000    0.09210000
opls_146-45    H    0.67539021    0.12950029    0.50000000    0.09750000
opls_146-46    H    0.87050002    0.54589024    0.50000000    0.09750000
opls_146-47    H    0.45411008    0.32461010    0.50000000    0.09750000
opls_146-48    H    0.28640021    0.76943030    0.50000000    0.10510000
opls_146-49    H    0.23057024    0.51697014    0.50000000    0.10510000
opls_146-50    H    0.48302987    0.71360017    0.50000000    0.10510000
opls_144-51    H    0.51739975    0.85624995    0.50000000    0.10540000
opls_144-52    H    0.14375017    0.66115004    0.50000000    0.09010000
opls_144-53    H    0.33885009    0.48260001    0.50000000    0.09010000
opls_146-54    H    0.74660014    0.48383017    0.50000000    0.22360000
opls_146-55    H    0.51617019    0.26276031    0.50000000    0.22360000
opls_146-56    H    0.73724003    0.25340024    0.50000000    0.22360000
