#======================================================================
# Crystal Data Generated By AuToFF
#----------------------------------------------------------------------

data_AuToFF_phase_1

_cell_length_a                         22.5060
_cell_length_b                         22.5060
_cell_length_c                         7.1200
_cell_angle_alpha                      90.00
_cell_angle_beta                       90.00
_cell_angle_gamma                      120.00
_symmetry_space_group_name_H-M_alt     'P 1'
_symmetry_space_group_IT_number        1

loop_
_space_group_symop_operation_xyz
   'x, y, z'

loop_
   _atom_site_label
   _atom_site_type_symbol
   _atom_site_fract_x
   _atom_site_fract_y
   _atom_site_fract_z
   _atom_site_charge
opls_167-0    O    0.74639003    0.27764988    0.18283006    -0.46900000
opls_167-1    O    0.73328988    0.47633983    0.97128933    -0.47000000
opls_167-2    O    0.52725000    0.25125021    0.99240028    -0.47000000
opls_167-3    O    0.23861986    0.70636973    0.86088062    -0.40180000
opls_167-4    O    0.29688022    0.52872000    0.98590028    -0.46950000
opls_167-5    O    0.47652992    0.76922974    0.97410955    -0.40760000
opls_269-6    O    0.45141016    0.32133004    0.06574017    -0.38170000
opls_268-7    O    0.36362016    0.33425001    0.15652949    -0.44330000
opls_269-8    O    0.64911000    0.68482979    0.99765028    -0.44170000
opls_268-9    O    0.56651971    0.69179976    0.83533006    -0.44290000
opls_269-10    O    0.98356992    0.33084019    0.84173034    -0.44820000
opls_268-11    O    0.88629996    0.29504017    0.00550983    -0.44000000
opls_269-12    O    0.02489994    0.66489985    0.02458989    -0.42540000
opls_268-13    O    0.12909980    0.68225986    0.11033006    -0.43980000
opls_269-14    O    0.30865011    0.87122007    0.04378933    -0.40680000
opls_268-15    O    0.31997990    0.96884987    0.15772051    -0.44370000
opls_269-16    O    0.67944003    0.12639983    0.91510955    -0.42660000
opls_268-17    O    0.67677020    0.03545011    0.05900983    -0.44430000
opls_167-18    O    0.74639003    0.27764988    0.68283006    -0.46900000
opls_167-19    O    0.73328988    0.47633983    0.47128933    -0.47000000
opls_167-20    O    0.52725000    0.25125021    0.49240028    -0.47000000
opls_167-21    O    0.23861986    0.70636973    0.36088062    -0.40180000
opls_167-22    O    0.29688022    0.52872000    0.48590028    -0.46950000
opls_167-23    O    0.47652992    0.76922974    0.47410955    -0.40760000
opls_269-24    O    0.45141016    0.32133004    0.56573034    -0.38170000
opls_268-25    O    0.36362016    0.33425001    0.65652949    -0.44330000
opls_269-26    O    0.64911000    0.68482979    0.49766011    -0.44170000
opls_268-27    O    0.56651971    0.69179976    0.33533006    -0.44290000
opls_269-28    O    0.98356992    0.33084019    0.34173034    -0.44820000
opls_268-29    O    0.88629996    0.29504017    0.50550983    -0.44000000
opls_269-30    O    0.02489994    0.66489985    0.52458989    -0.42540000
opls_268-31    O    0.12909980    0.68225986    0.61033006    -0.43980000
opls_269-32    O    0.30865011    0.87122007    0.54378933    -0.40680000
opls_268-33    O    0.31997990    0.96884987    0.65771067    -0.44370000
opls_269-34    O    0.67944003    0.12639983    0.41510955    -0.42660000
opls_268-35    O    0.67677020    0.03545011    0.55900983    -0.44430000
opls_750-36    N    0.56143990    0.14528005    0.97674017    -0.30920000
opls_750-37    N    0.85828004    0.40652986    0.01623034    -0.29310000
opls_750-38    N    0.58761976    0.44063985    0.04533006    -0.30930000
opls_750-39    N    0.42995986    0.85575993    0.02508006    -0.30930000
opls_750-40    N    0.14892976    0.58088983    0.98839045    -0.29860000
opls_750-41    N    0.43217002    0.57236990    0.91917978    -0.30910000
opls_750-42    N    0.56143990    0.14528005    0.47674017    -0.30920000
opls_750-43    N    0.85828004    0.40652986    0.51623034    -0.29310000
opls_750-44    N    0.58761976    0.44063985    0.54533006    -0.30930000
opls_750-45    N    0.42995986    0.85575993    0.52508006    -0.30930000
opls_750-46    N    0.14892976    0.58088983    0.48839045    -0.29860000
opls_750-47    N    0.43217002    0.57236990    0.41917978    -0.30910000
opls_166-48    C    0.70957007    0.30645018    0.10344944    0.23400000
opls_700-49    C    0.63989017    0.26307991    0.06181039    -0.19300000
opls_142-50    C    0.61186003    0.18866007    0.08114045    0.07970000
opls_145-51    C    0.53089026    0.07235014    0.98892978    0.20710000
opls_700-52    C    0.56849985    0.03710012    0.99757022    -0.18490000
opls_145-53    C    0.45936019    0.03549013    0.99893961    -0.16240000
opls_166-54    C    0.70030016    0.40583004    0.01096067    0.24630000
opls_700-55    C    0.74054985    0.37752998    0.06994944    -0.20330000
opls_142-56    C    0.81524985    0.42325008    0.08840028    0.07920000
opls_145-57    C    0.93186992    0.44970004    0.01198034    0.20260000
opls_145-58    C    0.96210011    0.52136986    0.03124017    -0.18080000
opls_700-59    C    0.97484000    0.42141998    0.97739045    -0.12420000
opls_166-60    C    0.59873986    0.29146976    0.00883006    0.23870000
opls_700-61    C    0.62886017    0.36267013    0.98546067    -0.11210000
opls_142-62    C    0.58365991    0.39067005    0.94413062    0.07880000
opls_145-63    C    0.54570999    0.47130001    0.01996067    0.20940000
opls_700-64    C    0.47267019    0.43468011    0.02460955    -0.09600000
opls_145-65    C    0.58099021    0.54243008    0.99692978    -0.19350000
opls_166-66    C    0.28855010    0.68857003    0.90431039    0.23990000
opls_700-67    C    0.35827991    0.73841978    0.92913062    -0.20040000
opls_142-68    C    0.38110992    0.81217007    0.91647051    0.07900000
opls_145-69    C    0.46000986    0.92866008    0.01844944    0.20710000
opls_700-70    C    0.42257007    0.96420973    0.02655056    -0.09740000
opls_145-71    C    0.53155013    0.96552984    0.01050000    -0.17080000
opls_166-72    C    0.31623996    0.59773985    0.95542978    0.25050000
opls_700-73    C    0.26729004    0.61845017    0.92274017    -0.18610000
opls_142-74    C    0.19342000    0.56739985    0.91161938    0.07920000
opls_145-75    C    0.07589981    0.53660989    0.99566011    0.20710000
opls_145-76    C    0.04621985    0.46539003    0.97352949    -0.18010000
opls_700-77    C    0.03333010    0.56496998    0.02658989    -0.19700000
opls_166-78    C    0.40727016    0.71795009    0.96090028    0.25150000
opls_700-79    C    0.38633987    0.64745980    0.96999017    -0.20120000
opls_142-80    C    0.43674000    0.62514000    0.00669944    0.07860000
opls_145-81    C    0.47420996    0.54229977    0.95426966    0.20850000
opls_700-82    C    0.54702002    0.57945992    0.96488062    -0.17390000
opls_145-83    C    0.43894998    0.47126973    0.98113062    -0.18640000
opls_470-84    C    0.42975993    0.36078975    0.08206039    0.63450000
opls_470-85    C    0.59045994    0.65482995    0.93625000    0.64540000
opls_470-86    C    0.94864987    0.34725975    0.93660955    0.64650000
opls_470-87    C    0.06148021    0.63997010    0.05188062    0.64090000
opls_470-88    C    0.34775987    0.93155991    0.07500000    0.63450000
opls_470-89    C    0.64461009    0.07021990    0.98788062    0.64610000
opls_166-90    C    0.70957007    0.30645018    0.60344944    0.23400000
opls_700-91    C    0.63989017    0.26307991    0.56181039    -0.19300000
opls_142-92    C    0.61186003    0.18866007    0.58113062    0.07970000
opls_145-93    C    0.53089026    0.07235014    0.48892978    0.20710000
opls_700-94    C    0.56849985    0.03710012    0.49757022    -0.18490000
opls_145-95    C    0.45936019    0.03549013    0.49893961    -0.16240000
opls_166-96    C    0.70030016    0.40583004    0.51096067    0.24640000
opls_700-97    C    0.74054985    0.37752998    0.56994944    -0.20330000
opls_142-98    C    0.81524985    0.42325008    0.58840028    0.07920000
opls_145-99    C    0.93186992    0.44970004    0.51198034    0.20260000
opls_145-100    C    0.96210011    0.52136986    0.53124017    -0.18080000
opls_700-101    C    0.97484000    0.42141998    0.47739045    -0.12420000
opls_166-102    C    0.59873986    0.29146976    0.50883006    0.23870000
opls_700-103    C    0.62886017    0.36267013    0.48546067    -0.11210000
opls_142-104    C    0.58365991    0.39067005    0.44413062    0.07880000
opls_145-105    C    0.54570999    0.47130001    0.51996067    0.20940000
opls_700-106    C    0.47267019    0.43468011    0.52459972    -0.09600000
opls_145-107    C    0.58099021    0.54243008    0.49692978    -0.19350000
opls_166-108    C    0.28855010    0.68857003    0.40431039    0.23990000
opls_700-109    C    0.35827991    0.73841978    0.42913062    -0.20040000
opls_142-110    C    0.38110992    0.81217007    0.41647051    0.07900000
opls_145-111    C    0.46000986    0.92866008    0.51844944    0.20710000
opls_700-112    C    0.42257007    0.96420973    0.52655056    -0.09740000
opls_145-113    C    0.53155013    0.96552984    0.51050000    -0.17080000
opls_166-114    C    0.31623996    0.59773985    0.45542978    0.25050000
opls_700-115    C    0.26729004    0.61845017    0.42274017    -0.18610000
opls_142-116    C    0.19342000    0.56739985    0.41161938    0.07920000
opls_145-117    C    0.07589981    0.53660989    0.49566011    0.20710000
opls_145-118    C    0.04621985    0.46539003    0.47352949    -0.18010000
opls_700-119    C    0.03333010    0.56496998    0.52658989    -0.19700000
opls_166-120    C    0.40727016    0.71795009    0.46090028    0.25150000
opls_700-121    C    0.38633987    0.64745980    0.46999017    -0.20120000
opls_142-122    C    0.43674000    0.62514000    0.50669944    0.07860000
opls_145-123    C    0.47420996    0.54229977    0.45426966    0.20850000
opls_700-124    C    0.54702002    0.57945992    0.46488062    -0.17390000
opls_145-125    C    0.43894998    0.47126973    0.48113062    -0.18640000
opls_470-126    C    0.42975993    0.36078975    0.58206039    0.63450000
opls_470-127    C    0.59045994    0.65482995    0.43625000    0.64550000
opls_470-128    C    0.94864987    0.34725975    0.43660955    0.64650000
opls_470-129    C    0.06148021    0.63997010    0.55188062    0.64070000
opls_470-130    C    0.34775987    0.93155991    0.57500000    0.63450000
opls_470-131    C    0.64461009    0.07021990    0.48788062    0.64610000
opls_168-132    H    0.78549985    0.31051005    0.26700983    0.33910000
opls_144-133    H    0.63540028    0.17050019    0.18052949    0.13040000
opls_146-134    H    0.43271993    0.06428017    0.99071067    0.13540000
opls_168-135    H    0.70513982    0.49204983    0.89682022    0.33510000
opls_144-136    H    0.83260981    0.47232972    0.15613062    0.10900000
opls_146-137    H    0.93034971    0.54443975    0.04686938    0.13420000
opls_168-138    H    0.50570011    0.20836991    0.07363062    0.33620000
opls_144-139    H    0.54430008    0.36603018    0.83698034    0.11320000
opls_146-140    H    0.63659011    0.56892981    0.99946067    0.13160000
opls_168-141    H    0.25315011    0.75654015    0.86375000    0.34060000
opls_144-142    H    0.35861973    0.83006982    0.81215028    0.11980000
opls_146-143    H    0.55854014    0.93689988    0.01027949    0.13160000
opls_168-144    H    0.24626014    0.49581007    0.00449017    0.37260000
opls_144-145    H    0.17736010    0.51955002    0.83791011    0.11370000
opls_146-146    H    0.07883990    0.44328008    0.95580056    0.13150000
opls_168-147    H    0.51087995    0.75365006    0.99531039    0.37880000
opls_144-148    H    0.47560007    0.65136011    0.11269944    0.12970000
opls_146-149    H    0.38359985    0.44493009    0.97058006    0.13190000
opls_270-150    H    0.35126991    0.36976990    0.19716011    0.34090000
opls_270-151    H    0.60208999    0.74224004    0.82291011    0.34120000
opls_270-152    H    0.86990992    0.30961989    0.12000983    0.34270000
opls_270-153    H    0.14171021    0.73209011    0.12308989    0.36240000
opls_270-154    H    0.35488000    0.01501993    0.21117978    0.37650000
opls_270-155    H    0.72850003    0.06257013    0.04406039    0.34120000
opls_168-156    H    0.78549985    0.31051005    0.76700983    0.33910000
opls_144-157    H    0.63540028    0.17050019    0.68052949    0.13040000
opls_146-158    H    0.43271993    0.06428017    0.49071067    0.13540000
opls_168-159    H    0.70513982    0.49204983    0.39682022    0.33510000
opls_144-160    H    0.83260981    0.47232972    0.65611938    0.10900000
opls_146-161    H    0.93034971    0.54443975    0.54686938    0.13420000
opls_168-162    H    0.50570011    0.20836991    0.57363062    0.33620000
opls_144-163    H    0.54430008    0.36603018    0.33698034    0.11320000
opls_146-164    H    0.63659011    0.56892981    0.49946067    0.13160000
opls_168-165    H    0.25315011    0.75654015    0.36375000    0.34060000
opls_144-166    H    0.35861973    0.83006982    0.31215028    0.11980000
opls_146-167    H    0.55854014    0.93689988    0.51027949    0.13160000
opls_168-168    H    0.24626014    0.49581007    0.50449017    0.37260000
opls_144-169    H    0.17736010    0.51955002    0.33791011    0.11370000
opls_146-170    H    0.07883990    0.44328008    0.45580056    0.13150000
opls_168-171    H    0.51087995    0.75365006    0.49531039    0.37880000
opls_144-172    H    0.47560007    0.65136011    0.61269944    0.12970000
opls_146-173    H    0.38359985    0.44493009    0.47058006    0.13190000
opls_270-174    H    0.35126991    0.36976990    0.69716011    0.34090000
opls_270-175    H    0.60208999    0.74224004    0.32291011    0.34120000
opls_270-176    H    0.86990992    0.30961989    0.62000983    0.34270000
opls_270-177    H    0.14171021    0.73209011    0.62308989    0.36240000
opls_270-178    H    0.35488000    0.01501993    0.71117978    0.37650000
opls_270-179    H    0.72850003    0.06257013    0.54405056    0.34120000
