#======================================================================
# Crystal Data Generated By AuToFF
#----------------------------------------------------------------------

data_AuToFF_phase_1

_cell_length_a                         29.6712
_cell_length_b                         30.7116
_cell_length_c                         6.7694
_cell_angle_alpha                      89.64
_cell_angle_beta                       90.53
_cell_angle_gamma                      119.36
_symmetry_space_group_name_H-M_alt     'P 1'
_symmetry_space_group_IT_number        1

loop_
_space_group_symop_operation_xyz
   'x, y, z'

loop_
   _atom_site_label
   _atom_site_type_symbol
   _atom_site_fract_x
   _atom_site_fract_y
   _atom_site_fract_z
   _atom_site_charge
opls_700-0    C    0.02545012    0.01125015    0.99437000    0.06830000
opls_145-1    C    0.05019010    0.98159987    0.99655050    -0.23470000
opls_166-2    C    0.10324016    0.00468020    0.99963067    0.22570000
opls_916-3    C    0.13443009    0.05841008    0.00071945    0.13630000
opls_145-4    C    0.10994997    0.08795015    0.99774120    -0.18800000
opls_145-5    C    0.05689000    0.06470021    0.99466103    -0.18210000
opls_700-6    C    0.96923008    0.98688006    0.99230029    0.06830000
opls_145-7    C    0.93848993    0.93333014    0.99146119    -0.18220000
opls_145-8    C    0.88541010    0.90925014    0.98980070    -0.18990000
opls_916-9    C    0.86019993    0.93804014    0.98893057    0.13680000
opls_166-10    C    0.89063012    0.99194002    0.98998093    0.22360000
opls_145-11    C    0.94381980    0.01589004    0.99159119    -0.23480000
opls_142-12    C    0.77247982    0.86688983    0.98724053    0.08360000
opls_142-13    C    0.22287008    0.12803000    0.00659025    0.08320000
opls_145-14    C    0.27476019    0.14459011    0.01018010    -0.12820000
opls_280-15    C    0.29463996    0.10856992    0.01105023    0.28400000
opls_280-16    C    0.30901019    0.20026005    0.00972952    0.32390000
opls_700-17    C    0.35049014    0.12963014    0.00652968    -0.12810000
opls_700-18    C    0.36441006    0.21961991    0.00937054    -0.12340000
opls_280-19    C    0.38588008    0.18497009    0.00786073    0.30870000
opls_145-20    C    0.72029010    0.84932994    0.98452081    -0.12400000
opls_280-21    C    0.69999009    0.88490014    0.98089994    0.26730000
opls_280-22    C    0.68625992    0.79367991    0.98707064    0.31390000
opls_700-23    C    0.64428024    0.86389016    0.97808125    -0.12250000
opls_700-24    C    0.63066999    0.77412996    0.98573073    -0.12400000
opls_280-25    C    0.60886996    0.80863019    0.97900013    0.30840000
opls_142-26    C    0.39926999    0.27148991    0.00837040    0.06130000
opls_142-27    C    0.36813004    0.09489994    0.99814007    0.08860000
opls_142-28    C    0.62726020    0.89918006    0.97622132    0.08260000
opls_142-29    C    0.59590993    0.72231991    0.99102095    0.04050000
opls_916-30    C    0.41828997    0.36014996    0.00751947    0.13940000
opls_145-31    C    0.47179022    0.38310009    0.00867029    -0.19400000
opls_166-32    C    0.39652011    0.39254986    0.00620024    0.22400000
opls_145-33    C    0.50204003    0.43602001    0.00898939    -0.09430000
opls_145-34    C    0.42702997    0.44551005    0.00667003    -0.23340000
opls_700-35    C    0.48093999    0.46874989    0.00823006    0.06830000
opls_700-36    C    0.51358021    0.52476008    0.00798039    0.06830000
opls_145-37    C    0.49268024    0.55766006    0.00699060    -0.09430000
opls_145-38    C    0.56744014    0.54786991    0.00798039    -0.23480000
opls_145-39    C    0.52308988    0.61052990    0.00423986    -0.20040000
opls_166-40    C    0.59800002    0.60075012    0.00540989    0.23030000
opls_916-41    C    0.57660003    0.63339995    0.00252028    0.13910000
opls_916-42    C    0.55760016    0.91887996    0.97415014    0.13690000
opls_145-43    C    0.58721983    0.97236984    0.97401128    -0.17360000
opls_166-44    C    0.50379982    0.89735985    0.97401128    0.22480000
opls_145-45    C    0.56415012    0.00275013    0.97336126    -0.13310000
opls_145-46    C    0.48087989    0.92788988    0.97351047    -0.23080000
opls_700-47    C    0.51066002    0.98180997    0.97294023    0.06830000
opls_700-48    C    0.48657992    0.01435025    0.97334058    0.06840000
opls_145-49    C    0.43306008    0.99303987    0.97058098    -0.13310000
opls_145-50    C    0.51601011    0.06821020    0.97741055    -0.23000000
opls_145-51    C    0.40953987    0.02297007    0.97517096    -0.17700000
opls_166-52    C    0.49264973    0.09834995    0.98132098    0.21530000
opls_916-53    C    0.43879992    0.07642022    0.98229009    0.14770000
opls_700-54    C    0.06479992    0.08462990    0.49487006    0.06830000
opls_145-55    C    0.09016013    0.05557011    0.49739034    -0.23480000
opls_166-56    C    0.14333991    0.07946003    0.50044984    0.22330000
opls_916-57    C    0.17380993    0.13335998    0.50135099    0.13690000
opls_145-58    C    0.14865994    0.16219013    0.49780103    -0.18990000
opls_145-59    C    0.09557983    0.13816990    0.49458051    -0.18220000
opls_700-60    C    0.00857990    0.06027016    0.49303082    0.06830000
opls_145-61    C    0.97717019    0.00681021    0.49233058    -0.18220000
opls_145-62    C    0.92411002    0.98351980    0.49104976    -0.18800000
opls_916-63    C    0.89958993    0.01303002    0.49035099    0.13630000
opls_166-64    C    0.93073991    0.06676003    0.49116055    0.22400000
opls_145-65    C    0.98380003    0.08989014    0.49247979    -0.23470000
opls_142-66    C    0.81122996    0.94329982    0.48693104    0.08350000
opls_142-67    C    0.26160010    0.20440992    0.50589961    0.08900000
opls_145-68    C    0.31376987    0.22186003    0.50927082    -0.12390000
opls_280-69    C    0.33394979    0.18618984    0.51182064    0.26720000
opls_280-70    C    0.34789998    0.27750016    0.50789988    0.31390000
opls_700-71    C    0.38963992    0.20707021    0.50840069    -0.13050000
opls_700-72    C    0.40345982    0.29691998    0.50791022    -0.12400000
opls_280-73    C    0.42515016    0.26230015    0.50697066    0.30870000
opls_145-74    C    0.75931006    0.92660007    0.48396018    -0.12820000
opls_280-75    C    0.73928007    0.96249993    0.48237060    0.28400000
opls_280-76    C    0.72518989    0.87091985    0.48324959    0.33020000
opls_700-77    C    0.68339995    0.94129010    0.47870984    -0.12820000
opls_700-78    C    0.66976985    0.85139980    0.48034078    -0.18770000
opls_280-79    C    0.64814998    0.88592015    0.47682037    0.30870000
opls_142-80    C    0.43832994    0.34871983    0.50753055    0.03660000
opls_142-81    C    0.40656011    0.17171009    0.50398059    0.08340000
opls_142-82    C    0.66561008    0.97593982    0.47809085    0.08360000
opls_142-83    C    0.63502991    0.79949989    0.48293050    0.06180000
opls_916-84    C    0.45789004    0.43774992    0.50784965    0.13910000
opls_145-85    C    0.51140004    0.46054985    0.50901081    -0.20040000
opls_166-86    C    0.43658006    0.47048013    0.50719077    0.23050000
opls_145-87    C    0.54189001    0.51340987    0.50882024    -0.09430000
opls_145-88    C    0.46720994    0.52335015    0.50717009    -0.23480000
opls_700-89    C    0.52106984    0.54638994    0.50754090    0.06810000
opls_700-90    C    0.55373006    0.60239002    0.50499993    0.06830000
opls_145-91    C    0.53257016    0.63507006    0.50146031    -0.13040000
opls_145-92    C    0.60763994    0.62568009    0.50464981    -0.23340000
opls_145-93    C    0.56275993    0.68795991    0.49593077    -0.19400000
opls_166-94    C    0.63810001    0.67862997    0.49938027    0.22440000
opls_916-95    C    0.61626012    0.71096009    0.49398073    0.13970000
opls_916-96    C    0.59485006    0.99437996    0.47445078    0.14530000
opls_145-97    C    0.62410007    0.04785996    0.47463101    -0.17700000
opls_166-98    C    0.54100017    0.97244993    0.47371065    0.21540000
opls_145-99    C    0.60057999    0.07780012    0.47484965    -0.13310000
opls_145-100    C    0.51762989    0.00259000    0.47384065    -0.23000000
opls_700-101    C    0.54705008    0.05645997    0.47493090    0.06840000
opls_700-102    C    0.52297992    0.08900996    0.47769050    0.06840000
opls_145-103    C    0.46949996    0.06809007    0.47863007    -0.13310000
opls_145-104    C    0.55279002    0.14292008    0.48076034    -0.23080000
opls_145-105    C    0.44646000    0.09848004    0.48428075    -0.17400000
opls_166-106    C    0.52990990    0.17345988    0.48635045    0.22480000
opls_916-107    C    0.47611993    0.15195988    0.48946018    0.13660000
opls_146-108    H    0.02843993    0.93976007    0.99614128    0.11370000
opls_146-109    H    0.13226979    0.12968992    0.99797019    0.07630000
opls_146-110    H    0.04015992    0.08984008    0.99247018    0.11790000
opls_146-111    H    0.95570982    0.90860987    0.99199006    0.09820000
opls_146-112    H    0.86367993    0.86747993    0.98916102    0.07650000
opls_146-113    H    0.96519986    0.05773002    0.99241109    0.11370000
opls_144-114    H    0.78583984    0.83875000    0.99020105    0.04630000
opls_144-115    H    0.21028988    0.15682999    0.00439055    0.04420000
opls_910-116    H    0.20127000    0.05271001    0.00721958    0.26490000
opls_910-117    H    0.79243986    0.94189987    0.98479116    0.26520000
opls_144-118    H    0.44024991    0.28333980    0.00793016    0.09980000
opls_144-119    H    0.33986994    0.05388024    0.99684005    0.04500000
opls_144-120    H    0.65603005    0.94005005    0.97656110    0.04500000
opls_144-121    H    0.55489986    0.71038985    0.98960126    0.10620000
opls_146-122    H    0.49051999    0.35976990    0.00933065    0.07830000
opls_146-123    H    0.54348999    0.45148003    0.00992009    0.12310000
opls_146-124    H    0.40787016    0.46850011    0.00556057    0.08680000
opls_146-125    H    0.45122013    0.54230998    0.00816949    0.11710000
opls_146-126    H    0.58655000    0.52482993    0.00955963    0.10380000
opls_146-127    H    0.50448024    0.63398011    0.00336973    0.10330000
opls_146-128    H    0.62900998    0.99105983    0.97444117    0.12140000
opls_146-129    H    0.58949002    0.04414009    0.97305989    0.04240000
opls_146-130    H    0.43901003    0.90867011    0.97391082    0.11640000
opls_146-131    H    0.40790017    0.95161014    0.96500120    0.04100000
opls_146-132    H    0.55785999    0.08760005    0.97838114    0.11740000
opls_146-133    H    0.36775008    0.00398004    0.97329035    0.12140000
opls_168-134    H    0.10240020    0.93949988    0.00039001    0.35090000
opls_168-135    H    0.88942980    0.05610993    0.99044037    0.36320000
opls_168-136    H    0.43858000    0.83423984    0.97491096    0.36270000
opls_168-137    H    0.55751007    0.16153009    0.98436127    0.36270000
opls_168-138    H    0.33330000    0.39522993    0.00252028    0.34990000
opls_168-139    H    0.66058012    0.59678985    0.00808971    0.35090000
opls_910-140    H    0.34605992    0.29457984    0.00780016    0.26630000
opls_910-141    H    0.55190982    0.84657990    0.97443083    0.25670000
opls_910-142    H    0.44339003    0.14829024    0.99375101    0.25250000
opls_910-143    H    0.64893999    0.69913016    0.99797019    0.26660000
opls_146-144    H    0.06873994    0.01373022    0.49718057    0.11370000
opls_146-145    H    0.17042999    0.20395997    0.49762967    0.07650000
opls_146-146    H    0.07840009    0.16291999    0.49186966    0.09820000
opls_146-147    H    0.99392997    0.98169998    0.49269991    0.11710000
opls_146-148    H    0.90183002    0.94177978    0.49059032    0.07630000
opls_146-149    H    0.00553996    0.13172012    0.49311060    0.11380000
opls_144-150    H    0.82390005    0.91458003    0.48786026    0.04460000
opls_144-151    H    0.24831002    0.23261016    0.50239102    0.04630000
opls_910-152    H    0.24147998    0.12935003    0.50867990    0.25950000
opls_910-153    H    0.83264000    0.01858014    0.48803015    0.26480000
opls_144-154    H    0.47932014    0.36053002    0.50728975    0.10630000
opls_144-155    H    0.37774994    0.13084006    0.50529983    0.04500000
opls_144-156    H    0.69381008    0.01696981    0.48052988    0.04500000
opls_144-157    H    0.59402019    0.78751013    0.48134092    0.10340000
opls_146-158    H    0.52994000    0.43703016    0.50986026    0.07760000
opls_146-159    H    0.58335017    0.52871008    0.50958105    0.11840000
opls_146-160    H    0.44815994    0.54644008    0.50659985    0.08680000
opls_146-161    H    0.49112010    0.61957990    0.50260079    0.12310000
opls_146-162    H    0.62683018    0.60272011    0.50845978    0.08680000
opls_146-163    H    0.54398016    0.71125000    0.49320957    0.09960000
opls_146-164    H    0.66590001    0.06687990    0.47493976    0.12140000
opls_146-165    H    0.62574012    0.11925999    0.47523079    0.04100000
opls_146-166    H    0.47578009    0.98319010    0.47355996    0.11740000
opls_146-167    H    0.44413989    0.02670990    0.47487033    0.08920000
opls_146-168    H    0.59466008    0.16212996    0.47917076    0.11320000
opls_146-169    H    0.40467005    0.07982021    0.48483031    0.12030000
opls_168-170    H    0.14442987    0.01523997    0.50095064    0.36320000
opls_168-171    H    0.93151013    0.13191003    0.49130976    0.35090000
opls_168-172    H    0.47615003    0.90924987    0.47324973    0.36270000
opls_168-173    H    0.59514010    0.23655996    0.48574033    0.36280000
opls_168-174    H    0.37407981    0.47458984    0.50529096    0.35080000
opls_168-175    H    0.70138012    0.67607995    0.50531017    0.36410000
opls_910-176    H    0.38546009    0.37214000    0.50698986    0.26660000
opls_910-177    H    0.59036983    0.92247986    0.47350973    0.26500000
opls_910-178    H    0.48187987    0.22424988    0.49689988    0.25230000
opls_910-179    H    0.68841987    0.77663986    0.48866982    0.26630000
opls_238-180    N    0.18702001    0.07830007    0.00500067    -0.23400000
opls_238-181    N    0.80743001    0.91686992    0.98681063    -0.23440000
opls_238-182    N    0.38545005    0.30774008    0.00781050    -0.24230000
opls_238-183    N    0.57752986    0.88591002    0.97458004    -0.23480000
opls_238-184    N    0.60953000    0.68585011    0.99772052    -0.22320000
opls_238-185    N    0.41812989    0.10881022    0.99068117    -0.23420000
opls_238-186    N    0.22656998    0.15444020    0.50572972    -0.23720000
opls_238-187    N    0.84698005    0.99305995    0.48866096    -0.23330000
opls_238-188    N    0.42485012    0.38531011    0.50745078    -0.22320000
opls_238-189    N    0.61557014    0.96198006    0.47501067    -0.23150000
opls_238-190    N    0.64899998    0.76337011    0.48796072    -0.24240000
opls_238-191    N    0.45623998    0.18493002    0.49717023    -0.23550000
opls_281-192    O    0.26555001    0.06157985    0.01430030    -0.45870000
opls_281-193    O    0.29082981    0.22957985    0.00956997    -0.43070000
opls_281-194    O    0.43307999    0.20256995    0.00747959    -0.43120000
opls_281-195    O    0.56171013    0.79065010    0.97454015    -0.34620000
opls_281-196    O    0.72872006    0.93206010    0.98020118    -0.47650000
opls_281-197    O    0.70401008    0.76399987    0.99055117    -0.38860000
opls_167-198    O    0.12764002    0.97581999    0.00200027    -0.42620000
opls_167-199    O    0.86516971    0.01952992    0.98936046    -0.43860000
opls_167-200    O    0.47492993    0.84479998    0.97468050    -0.42750000
opls_167-201    O    0.52114012    0.15092022    0.98546038    -0.43690000
opls_167-202    O    0.34414028    0.36952015    0.00430043    -0.43600000
opls_167-203    O    0.65077024    0.62330010    0.00504056    -0.47090000
opls_281-204    O    0.30513995    0.13906017    0.51559959    -0.47620000
opls_281-205    O    0.33024006    0.30726018    0.50668997    -0.38850000
opls_281-206    O    0.47229985    0.28018999    0.50490095    -0.34600000
opls_281-207    O    0.60094011    0.86820984    0.47303995    -0.43120000
opls_281-208    O    0.76827011    0.00952021    0.48389074    -0.46900000
opls_281-209    O    0.74349012    0.84170000    0.48532964    -0.43070000
opls_167-210    O    0.16873002    0.05181022    0.50291103    -0.43860000
opls_167-211    O    0.90629013    0.09558016    0.49057997    -0.42620000
opls_167-212    O    0.51251996    0.91985990    0.47337087    -0.44020000
opls_167-213    O    0.55881012    0.22600018    0.48987973    -0.43240000
opls_167-214    O    0.38381987    0.44802001    0.50636053    -0.47090000
opls_167-215    O    0.69047988    0.70171989    0.49881003    -0.43600000
