#======================================================================
# Crystal Data Generated By AuToFF
#----------------------------------------------------------------------

data_AuToFF_phase_1

_cell_length_a                         38.8990
_cell_length_b                         38.8990
_cell_length_c                         3.7876
_cell_angle_alpha                      90.00
_cell_angle_beta                       90.00
_cell_angle_gamma                      120.00
_symmetry_space_group_name_H-M_alt     'P 1'
_symmetry_space_group_IT_number        1

loop_
_space_group_symop_operation_xyz
   'x, y, z'

loop_
   _atom_site_label
   _atom_site_type_symbol
   _atom_site_fract_x
   _atom_site_fract_y
   _atom_site_fract_z
   _atom_site_charge
opls_520-0    N    0.62502001    0.31424991    0.02213011    -0.34740000
opls_750-1    N    0.56806007    0.45374014    0.00802091    -0.22880000
opls_520-2    N    0.68575004    0.31076998    0.02213011    -0.34740000
opls_750-3    N    0.54626002    0.11432008    0.00802091    -0.22880000
opls_520-4    N    0.68922995    0.37498011    0.02213011    -0.34740000
opls_750-5    N    0.88568006    0.43194008    0.00802091    -0.22880000
opls_520-6    N    0.37497999    0.68575009    0.02213011    -0.34740000
opls_750-7    N    0.43194007    0.54626016    0.00802091    -0.22880000
opls_520-8    N    0.31424996    0.68923002    0.02213011    -0.34740000
opls_750-9    N    0.45373998    0.88567992    0.00802091    -0.22880000
opls_520-10    N    0.31077020    0.62502019    0.02213011    -0.34740000
opls_750-11    N    0.11431994    0.56805992    0.00802091    -0.22880000
opls_531-12    C    0.64395003    0.29139990    0.02219875    0.35640000
opls_700-13    C    0.62647010    0.38084014    0.02089978    -0.00770000
opls_523-14    C    0.64922011    0.42390001    0.97186873    -0.09200000
opls_145-15    C    0.62929992    0.44711009    0.96853944    -0.11580000
opls_145-16    C    0.58653007    0.42806001    0.01298976    0.21240000
opls_145-17    C    0.56364004    0.38503992    0.06747017    -0.11600000
opls_523-18    C    0.58345013    0.36170012    0.06942127    -0.09200000
opls_142-19    C    0.52883986    0.44142994    0.99010983    0.03520000
opls_700-20    C    0.51426005    0.47155000    0.99054018    -0.03400000
opls_145-21    C    0.54238003    0.51423999    0.99089925    -0.18730000
opls_166-22    C    0.52836009    0.54264012    0.99018904    0.38970000
opls_531-23    C    0.70860007    0.35255014    0.02219875    0.35640000
opls_700-24    C    0.61915996    0.24563013    0.02089978    -0.00770000
opls_523-25    C    0.57609990    0.22531994    0.97186873    -0.09200000
opls_145-26    C    0.55288992    0.18219002    0.96853944    -0.11580000
opls_145-27    C    0.57193993    0.15846996    0.01298976    0.21240000
opls_145-28    C    0.61496003    0.17859997    0.06747017    -0.11600000
opls_523-29    C    0.63830016    0.22175007    0.06942127    -0.09200000
opls_142-30    C    0.55856996    0.08741012    0.99010983    0.03520000
opls_700-31    C    0.52844998    0.04270988    0.99054018    -0.03400000
opls_145-32    C    0.48576007    0.02814009    0.99089925    -0.18730000
opls_166-33    C    0.45736008    0.98571993    0.99018904    0.38970000
opls_531-34    C    0.64744990    0.35604996    0.02219875    0.35640000
opls_700-35    C    0.75437009    0.37353002    0.02089978    -0.00770000
opls_523-36    C    0.77467998    0.35078005    0.97186873    -0.09200000
opls_145-37    C    0.81780991    0.37069989    0.96853944    -0.11590000
opls_145-38    C    0.84153000    0.41347003    0.01298976    0.21240000
opls_145-39    C    0.82139993    0.43636011    0.06747017    -0.11600000
opls_523-40    C    0.77825012    0.41655011    0.06942127    -0.09200000
opls_142-41    C    0.91258992    0.47115994    0.99010983    0.03520000
opls_700-42    C    0.95728997    0.48574012    0.99054018    -0.03400000
opls_145-43    C    0.97185991    0.45761991    0.99089925    -0.18730000
opls_166-44    C    0.01428009    0.47163994    0.99018904    0.38950000
opls_531-45    C    0.35604997    0.70860010    0.02219875    0.35640000
opls_700-46    C    0.37353005    0.61916015    0.02089978    -0.00770000
opls_523-47    C    0.35077989    0.57609999    0.97186873    -0.09200000
opls_145-48    C    0.37070008    0.55288991    0.96853944    -0.11580000
opls_145-49    C    0.41346993    0.57193999    0.01298976    0.21240000
opls_145-50    C    0.43635996    0.61496008    0.06747017    -0.11600000
opls_523-51    C    0.41655002    0.63830018    0.06942127    -0.09200000
opls_142-52    C    0.47116014    0.55857006    0.99010983    0.03520000
opls_700-53    C    0.48573995    0.52845000    0.99054018    -0.03400000
opls_145-54    C    0.45761997    0.48576001    0.99089925    -0.18730000
opls_166-55    C    0.47164006    0.45736017    0.99018904    0.38970000
opls_531-56    C    0.29140008    0.64745015    0.02219875    0.35620000
opls_700-57    C    0.38084019    0.75437016    0.02089978    -0.00770000
opls_523-58    C    0.42390010    0.77468006    0.97186873    -0.09210000
opls_145-59    C    0.44711008    0.81780998    0.96853944    -0.11580000
opls_145-60    C    0.42806007    0.84153004    0.01298976    0.21240000
opls_145-61    C    0.38503997    0.82140003    0.06747017    -0.11600000
opls_523-62    C    0.36169984    0.77824993    0.06942127    -0.09200000
opls_142-63    C    0.44143018    0.91259018    0.99010983    0.03520000
opls_700-64    C    0.47155002    0.95729012    0.99054018    -0.03400000
opls_145-65    C    0.51424008    0.97186020    0.99089925    -0.18730000
opls_166-66    C    0.54263992    0.01428007    0.99018904    0.38960000
opls_531-67    C    0.35255010    0.64395004    0.02219875    0.35640000
opls_700-68    C    0.24562991    0.62646998    0.02089978    -0.00770000
opls_523-69    C    0.22532002    0.64921995    0.97186873    -0.09200000
opls_145-70    C    0.18219009    0.62930011    0.96853944    -0.11580000
opls_145-71    C    0.15847000    0.58652997    0.01298976    0.21230000
opls_145-72    C    0.17860022    0.56364018    0.06747017    -0.11600000
opls_523-73    C    0.22174988    0.58344989    0.06942127    -0.09200000
opls_142-74    C    0.08741008    0.52884006    0.99010983    0.03520000
opls_700-75    C    0.04271018    0.51426018    0.99054018    -0.03400000
opls_145-76    C    0.02814009    0.54238009    0.99089925    -0.18730000
opls_166-77    C    0.98571991    0.52836006    0.99018904    0.38970000
opls_167-78    O    0.44356012    0.41498009    0.99008871    -0.36410000
opls_167-79    O    0.58502011    0.02858002    0.99008871    -0.36400000
opls_167-80    O    0.97142003    0.55643989    0.99008871    -0.36400000
opls_167-81    O    0.55643988    0.58501991    0.99008871    -0.36400000
opls_167-82    O    0.41497989    0.97141998    0.99008871    -0.36410000
opls_167-83    O    0.02857997    0.44356011    0.99008871    -0.36400000
opls_526-84    H    0.68236995    0.43950994    0.93307107    0.04820000
opls_146-85    H    0.64703991    0.48018999    0.92833985    0.04790000
opls_146-86    H    0.53076009    0.36926998    0.11480885    0.04950000
opls_526-87    H    0.56521999    0.32865999    0.11315873    0.04820000
opls_144-88    H    0.50595007    0.40903991    0.96932886    0.04650000
opls_146-89    H    0.57520007    0.52546017    0.99084117    0.04660000
opls_168-90    H    0.41359005    0.40774002    0.99026032    0.30460000
opls_526-91    H    0.56048986    0.24285997    0.93307107    0.04820000
opls_146-92    H    0.51980996    0.16684992    0.92833985    0.04790000
opls_146-93    H    0.63073013    0.16149007    0.11480885    0.04950000
opls_526-94    H    0.67133998    0.23656001    0.11315873    0.04820000
opls_144-95    H    0.59095998    0.09691007    0.96932886    0.04650000
opls_146-96    H    0.47453996    0.04974008    0.99084117    0.04660000
opls_168-97    H    0.59225991    0.00584994    0.99026032    0.30460000
opls_526-98    H    0.75713994    0.31763009    0.93307107    0.04820000
opls_146-99    H    0.83315014    0.35296009    0.92833985    0.04790000
opls_146-100    H    0.83851005    0.46923994    0.11480885    0.04950000
opls_526-101    H    0.76344003    0.43478000    0.11315873    0.04820000
opls_144-102    H    0.90308995    0.49405002    0.96932886    0.04650000
opls_146-103    H    0.95026012    0.42480004    0.99084117    0.04660000
opls_168-104    H    0.99415003    0.58641004    0.99026032    0.30450000
opls_526-105    H    0.31763005    0.56049006    0.93307107    0.04820000
opls_146-106    H    0.35296009    0.51981001    0.92833985    0.04790000
opls_146-107    H    0.46923991    0.63073002    0.11480885    0.04950000
opls_526-108    H    0.43478001    0.67134001    0.11315873    0.04820000
opls_144-109    H    0.49404993    0.59096009    0.96932886    0.04650000
opls_146-110    H    0.42480008    0.47454013    0.99084117    0.04660000
opls_168-111    H    0.58640995    0.59225998    0.99026032    0.30460000
opls_526-112    H    0.43951014    0.75714003    0.93307107    0.04820000
opls_146-113    H    0.48019004    0.83315008    0.92833985    0.04790000
opls_146-114    H    0.36926987    0.83850993    0.11480885    0.04950000
opls_526-115    H    0.32866002    0.76343999    0.11315873    0.04820000
opls_144-116    H    0.40904002    0.90308993    0.96932886    0.04650000
opls_146-117    H    0.52546004    0.95025992    0.99084117    0.04660000
opls_168-118    H    0.40774009    0.99415006    0.99026032    0.30450000
opls_526-119    H    0.24286006    0.68236991    0.93307107    0.04820000
opls_146-120    H    0.16684986    0.64703991    0.92833985    0.04790000
opls_146-121    H    0.16148995    0.53076006    0.11480885    0.04950000
opls_526-122    H    0.23655997    0.56522000    0.11315873    0.04820000
opls_144-123    H    0.09691005    0.50594998    0.96932886    0.04650000
opls_146-124    H    0.04973988    0.57519996    0.99084117    0.04660000
opls_168-125    H    0.00584997    0.41358996    0.99026032    0.30460000
