#======================================================================
# Crystal Data Generated By AuToFF
#----------------------------------------------------------------------

data_AuToFF_phase_1

_cell_length_a                         45.8877
_cell_length_b                         45.8877
_cell_length_c                         3.9784
_cell_angle_alpha                      90.00
_cell_angle_beta                       90.00
_cell_angle_gamma                      120.00
_symmetry_space_group_name_H-M_alt     'P 1'
_symmetry_space_group_IT_number        1

loop_
_space_group_symop_operation_xyz
   'x, y, z'

loop_
   _atom_site_label
   _atom_site_type_symbol
   _atom_site_fract_x
   _atom_site_fract_y
   _atom_site_fract_z
   _atom_site_charge
opls_140-0    H    0.57060003    0.63330013    0.22320028    0.12490000
opls_140-1    H    0.36670005    0.93730006    0.22320028    0.12490000
opls_140-2    H    0.06270004    0.42940007    0.22320028    0.12490000
opls_140-3    H    0.42940009    0.36670013    0.22320028    0.12490000
opls_140-4    H    0.63329995    0.06269994    0.22320028    0.12500000
opls_140-5    H    0.93729996    0.57059993    0.22320028    0.12490000
opls_140-6    H    0.42940009    0.36670013    0.77679972    0.12490000
opls_140-7    H    0.63329995    0.06269994    0.77679972    0.12490000
opls_140-8    H    0.93729996    0.57059993    0.77679972    0.12490000
opls_140-9    H    0.57060003    0.63330013    0.77679972    0.12490000
opls_140-10    H    0.36670005    0.93730006    0.77679972    0.12490000
opls_140-11    H    0.06270004    0.42940007    0.77679972    0.12490000
opls_185-12    H    0.58050004    0.58450007    0.22589986    0.05670000
opls_185-13    H    0.41549989    0.99599999    0.22589986    0.05670000
opls_185-14    H    0.00400006    0.41949994    0.22589986    0.05670000
opls_185-15    H    0.41949996    0.41549993    0.22589986    0.05670000
opls_185-16    H    0.58450011    0.00400001    0.22589986    0.05670000
opls_185-17    H    0.99599994    0.58050006    0.22589986    0.05670000
opls_185-18    H    0.41949996    0.41549993    0.77410014    0.05670000
opls_185-19    H    0.58450011    0.00400001    0.77410014    0.05670000
opls_185-20    H    0.99599994    0.58050006    0.77410014    0.05670000
opls_185-21    H    0.58050004    0.58450007    0.77410014    0.05670000
opls_185-22    H    0.41549989    0.99599999    0.77410014    0.05670000
opls_185-23    H    0.00400006    0.41949994    0.77410014    0.05670000
opls_146-24    H    0.42869997    0.81670014    0.00000000    0.11470000
opls_146-25    H    0.18330008    0.61200013    0.00000000    0.11460000
opls_146-26    H    0.38800008    0.57129999    0.00000000    0.11460000
opls_146-27    H    0.57130016    0.18330011    0.00000000    0.11460000
opls_146-28    H    0.81670004    0.38800012    0.00000000    0.11470000
opls_146-29    H    0.61199992    0.42870001    0.00000000    0.11460000
opls_146-30    H    0.41090003    0.75820001    0.00000000    0.09330000
opls_146-31    H    0.24179990    0.65270002    0.00000000    0.09330000
opls_146-32    H    0.34730007    0.58909998    0.00000000    0.09330000
opls_146-33    H    0.58909997    0.24179999    0.00000000    0.09330000
opls_146-34    H    0.75820010    0.34729998    0.00000000    0.09330000
opls_146-35    H    0.65269993    0.41090002    0.00000000    0.09330000
opls_146-36    H    0.32589996    0.79429999    0.00000000    0.10690000
opls_146-37    H    0.20570007    0.53160010    0.00000000    0.10700000
opls_146-38    H    0.46840010    0.67410017    0.00000000    0.10690000
opls_146-39    H    0.67410004    0.20570001    0.00000000    0.10690000
opls_146-40    H    0.79430006    0.46840015    0.00000000    0.10690000
opls_146-41    H    0.53160003    0.32590008    0.00000000    0.10690000
opls_146-42    H    0.30660014    0.73550016    0.00000000    0.10470000
opls_146-43    H    0.26449988    0.57109993    0.00000000    0.10470000
opls_146-44    H    0.42890010    0.69340016    0.00000000    0.10470000
opls_146-45    H    0.69339999    0.26450010    0.00000000    0.10480000
opls_146-46    H    0.73550012    0.42890007    0.00000000    0.10470000
opls_146-47    H    0.57110002    0.30660009    0.00000000    0.10470000
opls_144-48    H    0.37099994    0.85390002    0.00000000    0.09520000
opls_144-49    H    0.14610007    0.51710006    0.00000000    0.09520000
opls_144-50    H    0.48290011    0.62900017    0.00000000    0.09520000
opls_144-51    H    0.62900006    0.14609998    0.00000000    0.09520000
opls_144-52    H    0.85389993    0.48289994    0.00000000    0.09520000
opls_144-53    H    0.51710001    0.37100009    0.00000000    0.09520000
opls_910-54    H    0.41510009    0.91080000    0.00000000    0.24140000
opls_910-55    H    0.08920006    0.50430009    0.00000000    0.24140000
opls_910-56    H    0.49570019    0.58490017    0.00000000    0.24140000
opls_910-57    H    0.58489991    0.08920000    0.00000000    0.24140000
opls_910-58    H    0.91080007    0.49570017    0.00000000    0.24140000
opls_910-59    H    0.50429993    0.41510008    0.00000000    0.24140000
opls_146-60    H    0.39359998    0.70780004    0.00000000    0.24010000
opls_146-61    H    0.29219992    0.68579999    0.00000000    0.24010000
opls_146-62    H    0.31419988    0.60639996    0.00000000    0.24010000
opls_146-63    H    0.60640002    0.29219996    0.00000000    0.24010000
opls_146-64    H    0.70780008    0.31420001    0.00000000    0.24010000
opls_146-65    H    0.68580012    0.39360004    0.00000000    0.24010000
opls_146-66    H    0.56189992    0.53190005    0.00000000    0.11840000
opls_146-67    H    0.46810010    0.03000007    0.00000000    0.11840000
opls_146-68    H    0.97000011    0.43810014    0.00000000    0.11840000
opls_146-69    H    0.43810008    0.46809995    0.00000000    0.11840000
opls_146-70    H    0.53190002    0.97000018    0.00000000    0.11840000
opls_146-71    H    0.03000002    0.56190012    0.00000000    0.11840000
opls_140-72    H    0.60879997    0.64280015    0.00000000    0.16420000
opls_140-73    H    0.35720015    0.96600017    0.00000000    0.16420000
opls_140-74    H    0.03400002    0.39119993    0.00000000    0.16420000
opls_140-75    H    0.39120016    0.35720010    0.00000000    0.16420000
opls_140-76    H    0.64279998    0.03400008    0.00000000    0.16420000
opls_140-77    H    0.96599998    0.60880007    0.00000000    0.16420000
opls_145-78    C    0.46530002    0.48200009    0.00000000    -0.22550000
opls_145-79    C    0.51800006    0.98330016    0.00000000    -0.22550000
opls_145-80    C    0.01670005    0.53470000    0.00000000    -0.22550000
opls_145-81    C    0.53470011    0.51800017    0.00000000    -0.22550000
opls_145-82    C    0.48200006    0.01670009    0.00000000    -0.22550000
opls_145-83    C    0.98329995    0.46530000    0.00000000    -0.22550000
opls_700-84    C    0.48150002    0.51760007    0.00000000    -0.12590000
opls_700-85    C    0.48240002    0.96390002    0.00000000    -0.12590000
opls_700-86    C    0.03610009    0.51850017    0.00000000    -0.12590000
opls_700-87    C    0.51849998    0.48239993    0.00000000    -0.12590000
opls_700-88    C    0.51759998    0.03609998    0.00000000    -0.12580000
opls_700-89    C    0.96390004    0.48150008    0.00000000    -0.12590000
opls_234-90    C    0.45919998    0.53320000    0.00000000    0.43810000
opls_234-91    C    0.46679997    0.92600008    0.00000000    0.43820000
opls_234-92    C    0.07400018    0.54080017    0.00000000    0.43820000
opls_234-93    C    0.54080002    0.46680000    0.00000000    0.43820000
opls_234-94    C    0.53320003    0.07399992    0.00000000    0.43810000
opls_234-95    C    0.92599995    0.45920008    0.00000000    0.43820000
opls_166-96    C    0.51709997    0.53580016    0.00000000    0.21550000
opls_166-97    C    0.46420007    0.98130016    0.00000000    0.21550000
opls_166-98    C    0.01869986    0.48289994    0.00000000    0.21550000
opls_166-99    C    0.48290015    0.46420010    0.00000000    0.21550000
opls_166-100    C    0.53580005    0.01870009    0.00000000    0.21550000
opls_166-101    C    0.98130014    0.51710006    0.00000000    0.21550000
opls_142-102    C    0.45639994    0.61030007    0.00000000    0.01780000
opls_142-103    C    0.38970013    0.84610005    0.00000000    0.01780000
opls_142-104    C    0.15390006    0.54360012    0.00000000    0.01780000
opls_142-105    C    0.54360006    0.38969993    0.00000000    0.01780000
opls_142-106    C    0.61029987    0.15389995    0.00000000    0.01780000
opls_142-107    C    0.84610007    0.45640013    0.00000000    0.01780000
opls_145-108    C    0.36759998    0.69000005    0.00000000    -0.14120000
opls_145-109    C    0.31000000    0.67760018    0.00000000    -0.14120000
opls_145-110    C    0.32239993    0.63240002    0.00000000    -0.14130000
opls_145-111    C    0.63240002    0.30999995    0.00000000    -0.14130000
opls_145-112    C    0.69000013    0.32240008    0.00000000    -0.14130000
opls_145-113    C    0.67760007    0.36759998    0.00000000    -0.14120000
opls_700-114    C    0.34450000    0.70190018    0.00000000    0.06150000
opls_700-115    C    0.29810015    0.64260010    0.00000000    0.06140000
opls_700-116    C    0.35739998    0.65549997    0.00000000    0.06140000
opls_700-117    C    0.65550013    0.29810007    0.00000000    0.06140000
opls_700-118    C    0.70189998    0.35740016    0.00000000    0.06140000
opls_700-119    C    0.64260002    0.34450003    0.00000000    0.06140000
opls_700-120    C    0.80990001    0.43120002    0.00000000    0.05670000
opls_700-121    C    0.56880013    0.37870015    0.00000000    0.05670000
opls_700-122    C    0.62129999    0.19010008    0.00000000    0.05670000
opls_700-123    C    0.19009999    0.56879998    0.00000000    0.05670000
opls_700-124    C    0.43120000    0.62130010    0.00000000    0.05680000
opls_700-125    C    0.37870013    0.80990017    0.00000000    0.05670000
opls_700-126    C    0.73950011    0.38310001    0.00000000    0.06160000
opls_700-127    C    0.61689999    0.35640015    0.00000000    0.06160000
opls_700-128    C    0.64360003    0.26050009    0.00000000    0.06160000
opls_700-129    C    0.26049989    0.61689999    0.00000000    0.06160000
opls_700-130    C    0.38310014    0.64360010    0.00000000    0.06160000
opls_700-131    C    0.35640010    0.73950016    0.00000000    0.06160000
opls_145-132    C    0.79869996    0.39669994    0.00000000    -0.12230000
opls_145-133    C    0.60330004    0.40200016    0.00000000    -0.12230000
opls_145-134    C    0.59800000    0.20129990    0.00000000    -0.12230000
opls_145-135    C    0.20130004    0.60330006    0.00000000    -0.12230000
opls_145-136    C    0.39670009    0.59800010    0.00000000    -0.12230000
opls_145-137    C    0.40200000    0.79870010    0.00000000    -0.12220000
opls_145-138    C    0.78620000    0.44170004    0.00000000    -0.12080000
opls_145-139    C    0.55830009    0.34450003    0.00000000    -0.12080000
opls_145-140    C    0.65549992    0.21379993    0.00000000    -0.12080000
opls_145-141    C    0.21380000    0.55829996    0.00000000    -0.12080000
opls_145-142    C    0.44169991    0.65549997    0.00000000    -0.12080000
opls_145-143    C    0.34450008    0.78620007    0.00000000    -0.12080000
opls_145-144    C    0.76430002    0.37309999    0.00000000    -0.13420000
opls_145-145    C    0.62690007    0.39119993    0.00000000    -0.13420000
opls_145-146    C    0.60880012    0.23570008    0.00000000    -0.13410000
opls_145-147    C    0.23569998    0.62690001    0.00000000    -0.13410000
opls_145-148    C    0.37309993    0.60880007    0.00000000    -0.13420000
opls_145-149    C    0.39120001    0.76430017    0.00000000    -0.13420000
opls_145-150    C    0.75170004    0.41830014    0.00000000    -0.13430000
opls_145-151    C    0.58170015    0.33340010    0.00000000    -0.13430000
opls_145-152    C    0.66659994    0.24830001    0.00000000    -0.13430000
opls_145-153    C    0.24830009    0.58170011    0.00000000    -0.13430000
opls_145-154    C    0.41829998    0.66660015    0.00000000    -0.13430000
opls_145-155    C    0.33340006    0.75169999    0.00000000    -0.13430000
opls_182-156    C    0.57010012    0.59020013    0.00000000    0.06990000
opls_182-157    C    0.40980001    0.97990006    0.00000000    0.06990000
opls_182-158    C    0.02010000    0.42990007    0.00000000    0.06990000
opls_182-159    C    0.42990001    0.40980012    0.00000000    0.06990000
opls_182-160    C    0.59019999    0.02009994    0.00000000    0.06990000
opls_182-161    C    0.97990000    0.57009993    0.00000000    0.06990000
opls_135-162    C    0.58089993    0.62719996    0.00000000    -0.45350000
opls_135-163    C    0.37279999    0.95370020    0.00000000    -0.45340000
opls_135-164    C    0.04629998    0.41910009    0.00000000    -0.45350000
opls_135-165    C    0.41910007    0.37280004    0.00000000    -0.45350000
opls_135-166    C    0.62720013    0.04630005    0.00000000    -0.45350000
opls_135-167    C    0.95370014    0.58090016    0.00000000    -0.45330000
opls_236-168    O    0.42879997    0.51410006    0.00000000    -0.40690000
opls_236-169    O    0.48589997    0.91470011    0.00000000    -0.40690000
opls_236-170    O    0.08529996    0.57120009    0.00000000    -0.40700000
opls_236-171    O    0.57120003    0.48589994    0.00000000    -0.40690000
opls_236-172    O    0.51410003    0.08529989    0.00000000    -0.40700000
opls_236-173    O    0.91470016    0.42880017    0.00000000    -0.40700000
opls_179-174    O    0.53419999    0.57120009    0.00000000    -0.22810000
opls_179-175    O    0.42880012    0.96300017    0.00000000    -0.22820000
opls_179-176    O    0.03700001    0.46580000    0.00000000    -0.22820000
opls_179-177    O    0.46580013    0.42880017    0.00000000    -0.22810000
opls_179-178    O    0.57120000    0.03700008    0.00000000    -0.22820000
opls_179-179    O    0.96299999    0.53420000    0.00000000    -0.22820000
opls_238-180    N    0.47040016    0.56710018    0.00000000    -0.28290000
opls_238-181    N    0.43290009    0.90329998    0.00000000    -0.28280000
opls_238-182    N    0.09670010    0.52960009    0.00000000    -0.28290000
opls_238-183    N    0.52959997    0.43290007    0.00000000    -0.28280000
opls_238-184    N    0.56709991    0.09670002    0.00000000    -0.28290000
opls_238-185    N    0.90330003    0.47040016    0.00000000    -0.28290000
opls_750-186    N    0.44710000    0.57859995    0.00000000    -0.18750000
opls_750-187    N    0.42140004    0.86850021    0.00000000    -0.18760000
opls_750-188    N    0.13150009    0.55290009    0.00000000    -0.18750000
opls_750-189    N    0.55290000    0.42140005    0.00000000    -0.18760000
opls_750-190    N    0.57860009    0.13150005    0.00000000    -0.18760000
opls_750-191    N    0.86850003    0.44710016    0.00000000    -0.18760000
