#======================================================================
# Crystal Data Generated By AuToFF
#----------------------------------------------------------------------

data_AuToFF_phase_1

_cell_length_a                         27.2900
_cell_length_b                         27.2900
_cell_length_c                         13.0755
_cell_angle_alpha                      90.00
_cell_angle_beta                       90.00
_cell_angle_gamma                      90.00
_symmetry_space_group_name_H-M_alt     'P 1'
_symmetry_space_group_IT_number        1

loop_
_space_group_symop_operation_xyz
   'x, y, z'

loop_
   _atom_site_label
   _atom_site_type_symbol
   _atom_site_fract_x
   _atom_site_fract_y
   _atom_site_fract_z
   _atom_site_charge
opls_145-0    C    0.00800989    0.93899011    0.14675003    -0.07740000
opls_145-1    C    0.03542983    0.91117992    0.21563000    -0.09640000
opls_700-2    C    0.08675009    0.91052986    0.21027035    0.07600000
opls_145-3    C    0.10996995    0.93835984    0.13432985    -0.09640000
opls_145-4    C    0.08255991    0.96631990    0.06566020    -0.07740000
opls_700-5    C    0.03110004    0.96711982    0.07049979    0.07330000
opls_727-6    C    0.16404984    0.86647014    0.26697029    0.27860000
opls_145-7    C    0.19000000    0.84062990    0.34176972    -0.20620000
opls_145-8    C    0.16855002    0.83000989    0.43618982    0.22940000
opls_145-9    C    0.12027006    0.84502015    0.45521013    -0.13880000
opls_145-10    C    0.09413008    0.87068010    0.38081985    -0.07720000
opls_700-11    C    0.11554012    0.88206010    0.28609002    -0.03160000
opls_142-12    C    0.18024991    0.79511982    0.60255975    0.01610000
opls_166-13    C    0.25510004    0.74804984    0.65815992    0.41990000
opls_166-14    C    0.18923012    0.76289996    0.78000994    0.22420000
opls_700-15    C    0.20868010    0.76779003    0.68021032    -0.19390000
opls_182-16    C    0.10390986    0.76920007    0.75292035    -0.01820000
opls_182-17    C    0.05882997    0.79785013    0.78534970    -0.01820000
opls_182-18    C    0.05258996    0.82913998    0.94105006    -0.01820000
opls_182-19    C    0.07810993    0.81809014    0.04159000    -0.01820000
opls_182-20    C    0.12930011    0.75576988    0.05758021    -0.01820000
opls_182-21    C    0.15189996    0.72351997    0.97548010    -0.01820000
opls_145-22    C    0.56030011    0.51404984    0.64630033    -0.07730000
opls_145-23    C    0.58652986    0.54417003    0.71301977    -0.07720000
opls_700-24    C    0.58314987    0.59534005    0.70575963    0.07360000
opls_145-25    C    0.55255002    0.61561011    0.63077970    -0.09640000
opls_145-26    C    0.52619018    0.58551997    0.56427976    -0.07740000
opls_700-27    C    0.52978014    0.53419018    0.57035983    0.07630000
opls_727-28    C    0.62166984    0.67641993    0.75680012    0.27860000
opls_145-29    C    0.64633016    0.70510004    0.82889985    -0.20690000
opls_145-30    C    0.65996006    0.68552986    0.92339031    0.23170000
opls_145-31    C    0.64914987    0.63641004    0.94529005    -0.13880000
opls_145-32    C    0.62465005    0.60754012    0.87356965    -0.07720000
opls_700-33    C    0.61026017    0.62702015    0.77878016    -0.03090000
opls_142-34    C    0.69544009    0.70217003    0.08755000    0.01430000
opls_166-35    C    0.73834995    0.78117992    0.13808038    0.22420000
opls_145-36    C    0.72441004    0.71620007    0.26092004    -0.17060000
opls_700-37    C    0.72028985    0.73417992    0.16201981    -0.04260000
opls_145-38    C    0.99199011    0.06100989    0.14675003    -0.07740000
opls_145-39    C    0.96457017    0.08882008    0.21563000    -0.09640000
opls_700-40    C    0.91324991    0.08947014    0.21027035    0.07600000
opls_145-41    C    0.89003005    0.06164016    0.13432985    -0.09640000
opls_145-42    C    0.91744009    0.03368010    0.06566020    -0.07740000
opls_700-43    C    0.96889996    0.03288018    0.07049979    0.07330000
opls_727-44    C    0.83595016    0.13352986    0.26697029    0.27860000
opls_145-45    C    0.81000000    0.15937010    0.34176972    -0.20620000
opls_145-46    C    0.83144998    0.16999011    0.43618982    0.22940000
opls_145-47    C    0.87972994    0.15497985    0.45521013    -0.13880000
opls_145-48    C    0.90586992    0.12931990    0.38081985    -0.07720000
opls_700-49    C    0.88445988    0.11793990    0.28609002    -0.03160000
opls_142-50    C    0.81975009    0.20488018    0.60255975    0.01610000
opls_166-51    C    0.74489996    0.25195016    0.65815992    0.41990000
opls_166-52    C    0.81076988    0.23710004    0.78000994    0.22420000
opls_700-53    C    0.79131990    0.23220997    0.68021032    -0.19390000
opls_182-54    C    0.89609014    0.23079993    0.75292035    -0.01820000
opls_182-55    C    0.94117003    0.20214987    0.78534970    -0.01820000
opls_182-56    C    0.94741004    0.17086002    0.94105006    -0.01820000
opls_182-57    C    0.92189007    0.18190986    0.04159000    -0.01820000
opls_182-58    C    0.87069989    0.24423012    0.05758021    -0.01820000
opls_182-59    C    0.84810004    0.27648003    0.97548010    -0.01820000
opls_145-60    C    0.43969989    0.48595016    0.64630033    -0.07730000
opls_145-61    C    0.41347014    0.45582997    0.71301977    -0.07720000
opls_700-62    C    0.41685013    0.40465995    0.70575963    0.07360000
opls_145-63    C    0.44744998    0.38438989    0.63077970    -0.09640000
opls_145-64    C    0.47380982    0.41448003    0.56427976    -0.07740000
opls_700-65    C    0.47021986    0.46580982    0.57035983    0.07630000
opls_727-66    C    0.37833016    0.32358007    0.75680012    0.27860000
opls_145-67    C    0.35366984    0.29489996    0.82889985    -0.20690000
opls_145-68    C    0.34003994    0.31447014    0.92339031    0.23170000
opls_145-69    C    0.35085013    0.36358996    0.94529005    -0.13880000
opls_145-70    C    0.37534995    0.39245988    0.87356965    -0.07720000
opls_700-71    C    0.38973983    0.37297985    0.77878016    -0.03090000
opls_142-72    C    0.30455991    0.29782997    0.08755000    0.01430000
opls_166-73    C    0.26165005    0.21882008    0.13808038    0.22420000
opls_145-74    C    0.27558996    0.28379993    0.26092004    -0.17060000
opls_700-75    C    0.27971015    0.26582008    0.16201981    -0.04260000
opls_145-76    C    0.93899011    0.99199011    0.85324997    -0.07740000
opls_145-77    C    0.91117992    0.96457017    0.78437000    -0.09640000
opls_700-78    C    0.91052986    0.91324991    0.78972965    0.07600000
opls_145-79    C    0.93835984    0.89003005    0.86567015    -0.09640000
opls_145-80    C    0.96631990    0.91744009    0.93433980    -0.07740000
opls_700-81    C    0.96711982    0.96889996    0.92950021    0.07330000
opls_727-82    C    0.86647014    0.83595016    0.73302971    0.27860000
opls_145-83    C    0.84062990    0.81000000    0.65823028    -0.20620000
opls_145-84    C    0.83000989    0.83144998    0.56381018    0.22940000
opls_145-85    C    0.84502015    0.87972994    0.54478987    -0.13880000
opls_145-86    C    0.87068010    0.90586992    0.61918015    -0.07720000
opls_700-87    C    0.88206010    0.88445988    0.71390998    -0.03160000
opls_142-88    C    0.79511982    0.81975009    0.39744025    0.01610000
opls_166-89    C    0.74804984    0.74489996    0.34184008    0.41990000
opls_166-90    C    0.76289996    0.81076988    0.21999006    0.22420000
opls_700-91    C    0.76779003    0.79131990    0.31978968    -0.19390000
opls_182-92    C    0.76920007    0.89609014    0.24707965    -0.01820000
opls_182-93    C    0.79785013    0.94117003    0.21465030    -0.01820000
opls_182-94    C    0.82913998    0.94741004    0.05894994    -0.01820000
opls_182-95    C    0.81809014    0.92189007    0.95841000    -0.01820000
opls_182-96    C    0.75576988    0.87069989    0.94241979    -0.01820000
opls_182-97    C    0.72351997    0.84810004    0.02451990    -0.01820000
opls_145-98    C    0.51404984    0.43969989    0.35369967    -0.07730000
opls_145-99    C    0.54417003    0.41347014    0.28698023    -0.07720000
opls_700-100    C    0.59534005    0.41685013    0.29424037    0.07360000
opls_145-101    C    0.61561011    0.44744998    0.36922030    -0.09640000
opls_145-102    C    0.58551997    0.47380982    0.43572024    -0.07740000
opls_700-103    C    0.53419018    0.47021986    0.42964017    0.07630000
opls_727-104    C    0.67641993    0.37833016    0.24319988    0.27860000
opls_145-105    C    0.70510004    0.35366984    0.17110015    -0.20690000
opls_145-106    C    0.68552986    0.34003994    0.07660969    0.23170000
opls_145-107    C    0.63641004    0.35085013    0.05470995    -0.13880000
opls_145-108    C    0.60754012    0.37534995    0.12643035    -0.07720000
opls_700-109    C    0.62702015    0.38973983    0.22121984    -0.03090000
opls_142-110    C    0.70217003    0.30455991    0.91245000    0.01430000
opls_166-111    C    0.78117992    0.26165005    0.86191962    0.22420000
opls_145-112    C    0.71620007    0.27558996    0.73907996    -0.17060000
opls_700-113    C    0.73417992    0.27971015    0.83798019    -0.04260000
opls_145-114    C    0.06100989    0.00800989    0.85324997    -0.07740000
opls_145-115    C    0.08882008    0.03542983    0.78437000    -0.09650000
opls_700-116    C    0.08947014    0.08675009    0.78972965    0.07600000
opls_145-117    C    0.06164016    0.10996995    0.86567015    -0.09640000
opls_145-118    C    0.03368010    0.08255991    0.93433980    -0.07740000
opls_700-119    C    0.03288018    0.03110004    0.92950021    0.07330000
opls_727-120    C    0.13352986    0.16404984    0.73302971    0.27860000
opls_145-121    C    0.15937010    0.19000000    0.65823028    -0.20620000
opls_145-122    C    0.16999011    0.16855002    0.56381018    0.22940000
opls_145-123    C    0.15497985    0.12027006    0.54478987    -0.13880000
opls_145-124    C    0.12931990    0.09413008    0.61918015    -0.07720000
opls_700-125    C    0.11793990    0.11554012    0.71390998    -0.03160000
opls_142-126    C    0.20488018    0.18024991    0.39744025    0.01610000
opls_166-127    C    0.25195016    0.25510004    0.34184008    0.41990000
opls_166-128    C    0.23710004    0.18923012    0.21999006    0.22420000
opls_700-129    C    0.23220997    0.20868010    0.31978968    -0.19390000
opls_182-130    C    0.23079993    0.10390986    0.24707965    -0.01820000
opls_182-131    C    0.20214987    0.05882997    0.21465030    -0.01820000
opls_182-132    C    0.17086002    0.05258996    0.05894994    -0.01820000
opls_182-133    C    0.18190986    0.07810993    0.95841000    -0.01820000
opls_182-134    C    0.24423012    0.12930011    0.94241979    -0.01820000
opls_182-135    C    0.27648003    0.15189996    0.02451990    -0.01820000
opls_145-136    C    0.48595016    0.56030011    0.35369967    -0.07730000
opls_145-137    C    0.45582997    0.58652986    0.28698023    -0.07720000
opls_700-138    C    0.40465995    0.58314987    0.29424037    0.07360000
opls_145-139    C    0.38438989    0.55255002    0.36922030    -0.09640000
opls_145-140    C    0.41448003    0.52619018    0.43572024    -0.07740000
opls_700-141    C    0.46580982    0.52978014    0.42964017    0.07630000
opls_727-142    C    0.32358007    0.62166984    0.24319988    0.27860000
opls_145-143    C    0.29489996    0.64633016    0.17110015    -0.20690000
opls_145-144    C    0.31447014    0.65996006    0.07660969    0.23170000
opls_145-145    C    0.36358996    0.64914987    0.05470995    -0.13880000
opls_145-146    C    0.39245988    0.62465005    0.12643035    -0.07720000
opls_700-147    C    0.37297985    0.61026017    0.22121984    -0.03100000
opls_142-148    C    0.29782997    0.69544009    0.91245000    0.01430000
opls_166-149    C    0.21882008    0.73834995    0.86191962    0.22410000
opls_145-150    C    0.28379993    0.72441004    0.73907996    -0.17060000
opls_700-151    C    0.26582008    0.72028985    0.83798019    -0.04260000
opls_701-152    C    0.00000000    0.00000000    0.00000000    0.01050000
opls_701-153    C    0.50000000    0.50000000    0.50000000    0.00970000
opls_750-154    N    0.19642983    0.80388018    0.51120034    -0.29320000
opls_750-155    N    0.68435984    0.71637010    0.99585025    -0.29320000
opls_750-156    N    0.80357017    0.19611982    0.51120034    -0.29320000
opls_750-157    N    0.31564016    0.28362990    0.99585025    -0.29320000
opls_750-158    N    0.80388018    0.80357017    0.48879966    -0.29330000
opls_750-159    N    0.71637010    0.31564016    0.00414975    -0.29320000
opls_750-160    N    0.19611982    0.19642983    0.48879966    -0.29320000
opls_750-161    N    0.28362990    0.68435984    0.00414975    -0.29320000
opls_719-162    F    0.30300000    0.60992012    0.33438033    -0.08900000
opls_719-163    F    0.87526017    0.81368010    0.82394019    -0.08930000
opls_719-164    F    0.69700000    0.39007988    0.33438033    -0.08900000
opls_719-165    F    0.12473983    0.18631990    0.82394019    -0.08940000
opls_719-166    F    0.60992012    0.69700000    0.66561967    -0.08900000
opls_719-167    F    0.81368010    0.12473983    0.17605981    -0.08930000
opls_719-168    F    0.39007988    0.30300000    0.66561967    -0.08900000
opls_719-169    F    0.18631990    0.87526017    0.17605981    -0.08930000
opls_179-170    O    0.20234995    0.73517003    0.96354021    -0.18540000
opls_180-171    O    0.12657017    0.80414987    0.02347979    -0.12270000
opls_180-172    O    0.04628985    0.78582997    0.88573974    -0.12270000
opls_179-173    O    0.14558996    0.78655002    0.80741004    -0.18520000
opls_167-174    O    0.75103005    0.72485013    0.43758021    -0.37560000
opls_179-175    O    0.79765005    0.26482997    0.96354021    -0.18540000
opls_180-176    O    0.87342983    0.19585013    0.02347979    -0.12270000
opls_180-177    O    0.95371015    0.21417003    0.88573974    -0.12270000
opls_179-178    O    0.85441004    0.21344998    0.80741004    -0.18520000
opls_167-179    O    0.24896995    0.27514987    0.43758021    -0.37570000
opls_179-180    O    0.73517003    0.79765005    0.03645979    -0.18540000
opls_180-181    O    0.80414987    0.87342983    0.97652021    -0.12270000
opls_180-182    O    0.78582997    0.95371015    0.11426026    -0.12270000
opls_179-183    O    0.78655002    0.85441004    0.19258996    -0.18520000
opls_167-184    O    0.72485013    0.24896995    0.56241979    -0.37560000
opls_179-185    O    0.26482997    0.20234995    0.03645979    -0.18540000
opls_180-186    O    0.19585013    0.12657017    0.97652021    -0.12270000
opls_180-187    O    0.21417003    0.04628985    0.11426026    -0.12270000
opls_179-188    O    0.21344998    0.14558996    0.19258996    -0.18520000
opls_167-189    O    0.27514987    0.75103005    0.56241979    -0.37560000
opls_146-190    H    0.96631000    0.93913998    0.15176016    0.04860000
opls_146-191    H    0.01611982    0.88868010    0.27705021    0.04860000
opls_146-192    H    0.15164016    0.93831990    0.12821995    0.04860000
opls_146-193    H    0.10186992    0.98896006    0.00447019    0.04860000
opls_146-194    H    0.22910004    0.82800000    0.32601966    0.04860000
opls_146-195    H    0.10224001    0.83626017    0.53169974    0.04860000
opls_146-196    H    0.05483987    0.88271015    0.39652021    0.04860000
opls_144-197    H    0.14217003    0.80958007    0.62194027    0.02870000
opls_185-198    H    0.11011982    0.77420007    0.66733968    0.04430000
opls_185-199    H    0.09820997    0.72866984    0.77035983    0.04430000
opls_185-200    H    0.02700000    0.78848992    0.73235976    0.04430000
opls_185-201    H    0.06686002    0.83878014    0.78049023    0.04430000
opls_185-202    H    0.01528985    0.84631000    0.95700967    0.04430000
opls_185-203    H    0.07586992    0.85579003    0.89470001    0.04430000
opls_185-204    H    0.07759985    0.85220007    0.09190012    0.04430000
opls_185-205    H    0.05796995    0.78706999    0.08213988    0.04430000
opls_185-206    H    0.09088018    0.74195016    0.07605981    0.04430000
opls_185-207    H    0.15293001    0.75400000    0.12939008    0.04430000
opls_185-208    H    0.14809014    0.68341993    0.99856984    0.04430000
opls_185-209    H    0.13195016    0.72989007    0.90003977    0.04430000
opls_146-210    H    0.56341993    0.47251997    0.65285993    0.04860000
opls_146-211    H    0.61100000    0.52721986    0.77419984    0.04860000
opls_146-212    H    0.54900000    0.65709014    0.62361975    0.04860000
opls_146-213    H    0.50128985    0.60247014    0.50388972    0.04860000
opls_146-214    H    0.65552986    0.74490986    0.81085006    0.04860000
opls_146-215    H    0.66037010    0.61993001    0.02189974    0.04860000
opls_146-216    H    0.61606010    0.56758007    0.89155979    0.04860000
opls_144-217    H    0.68514987    0.66310004    0.10969982    0.02870000
opls_146-218    H    0.70926017    0.67841993    0.28053994    0.04860000
opls_168-219    H    0.71399011    0.72379993    0.47257007    0.31700000
opls_146-220    H    0.03369000    0.06086002    0.15176016    0.04860000
opls_146-221    H    0.98388018    0.11131990    0.27705021    0.04860000
opls_146-222    H    0.84835984    0.06168010    0.12821995    0.04860000
opls_146-223    H    0.89813008    0.01103994    0.00447019    0.04860000
opls_146-224    H    0.77089996    0.17200000    0.32601966    0.04860000
opls_146-225    H    0.89775999    0.16373983    0.53169974    0.04860000
opls_146-226    H    0.94516013    0.11728985    0.39652021    0.04860000
opls_144-227    H    0.85782997    0.19041993    0.62194027    0.02870000
opls_185-228    H    0.88988018    0.22579993    0.66733968    0.04430000
opls_185-229    H    0.90179003    0.27133016    0.77035983    0.04430000
opls_185-230    H    0.97300000    0.21151008    0.73235976    0.04430000
opls_185-231    H    0.93313998    0.16121986    0.78049023    0.04430000
opls_185-232    H    0.98471015    0.15369000    0.95700967    0.04430000
opls_185-233    H    0.92413008    0.14420997    0.89470001    0.04430000
opls_185-234    H    0.92240015    0.14779993    0.09190012    0.04430000
opls_185-235    H    0.94203005    0.21293001    0.08213988    0.04430000
opls_185-236    H    0.90911982    0.25804984    0.07605981    0.04430000
opls_185-237    H    0.84706999    0.24600000    0.12939008    0.04430000
opls_185-238    H    0.85190986    0.31658007    0.99856984    0.04430000
opls_185-239    H    0.86804984    0.27010993    0.90003977    0.04430000
opls_146-240    H    0.43658007    0.52748003    0.65285993    0.04860000
opls_146-241    H    0.38900000    0.47278014    0.77419984    0.04860000
opls_146-242    H    0.45100000    0.34290986    0.62361975    0.04860000
opls_146-243    H    0.49871015    0.39752986    0.50388972    0.04860000
opls_146-244    H    0.34447014    0.25509014    0.81085006    0.04860000
opls_146-245    H    0.33962990    0.38006999    0.02189974    0.04860000
opls_146-246    H    0.38393990    0.43241993    0.89155979    0.04860000
opls_144-247    H    0.31485013    0.33689996    0.10969982    0.02870000
opls_146-248    H    0.29073983    0.32158007    0.28053994    0.04860000
opls_168-249    H    0.28600989    0.27620007    0.47257007    0.31700000
opls_146-250    H    0.93913998    0.03369000    0.84823984    0.04860000
opls_146-251    H    0.88868010    0.98388018    0.72294979    0.04860000
opls_146-252    H    0.93831990    0.84835984    0.87178005    0.04860000
opls_146-253    H    0.98896006    0.89813008    0.99552981    0.04860000
opls_146-254    H    0.82800000    0.77089996    0.67398034    0.04860000
opls_146-255    H    0.83626017    0.89775999    0.46830026    0.04860000
opls_146-256    H    0.88271015    0.94516013    0.60347979    0.04860000
opls_144-257    H    0.80958007    0.85782997    0.37805973    0.02870000
opls_185-258    H    0.77420007    0.88988018    0.33266032    0.04430000
opls_185-259    H    0.72866984    0.90179003    0.22964017    0.04430000
opls_185-260    H    0.78848992    0.97300000    0.26764024    0.04430000
opls_185-261    H    0.83878014    0.93313998    0.21950977    0.04430000
opls_185-262    H    0.84631000    0.98471015    0.04299033    0.04430000
opls_185-263    H    0.85579003    0.92413008    0.10529999    0.04430000
opls_185-264    H    0.85220007    0.92240015    0.90809988    0.04430000
opls_185-265    H    0.78706999    0.94203005    0.91786012    0.04430000
opls_185-266    H    0.74195016    0.90911982    0.92394019    0.04430000
opls_185-267    H    0.75400000    0.84706999    0.87060992    0.04430000
opls_185-268    H    0.68341993    0.85190986    0.00143016    0.04430000
opls_185-269    H    0.72989007    0.86804984    0.09996023    0.04430000
opls_146-270    H    0.47251997    0.43658007    0.34714007    0.04860000
opls_146-271    H    0.52721986    0.38900000    0.22580016    0.04860000
opls_146-272    H    0.65709014    0.45100000    0.37638025    0.04860000
opls_146-273    H    0.60247014    0.49871015    0.49611028    0.04860000
opls_146-274    H    0.74490986    0.34447014    0.18914994    0.04860000
opls_146-275    H    0.61993001    0.33962990    0.97810026    0.04860000
opls_146-276    H    0.56758007    0.38393990    0.10844021    0.04860000
opls_144-277    H    0.66310004    0.31485013    0.89030018    0.02870000
opls_146-278    H    0.67841993    0.29073983    0.71946006    0.04860000
opls_168-279    H    0.72379993    0.28600989    0.52742993    0.31700000
opls_146-280    H    0.06086002    0.96631000    0.84823984    0.04860000
opls_146-281    H    0.11131990    0.01611982    0.72294979    0.04860000
opls_146-282    H    0.06168010    0.15164016    0.87178005    0.04860000
opls_146-283    H    0.01103994    0.10186992    0.99552981    0.04860000
opls_146-284    H    0.17200000    0.22910004    0.67398034    0.04860000
opls_146-285    H    0.16373983    0.10224001    0.46830026    0.04860000
opls_146-286    H    0.11728985    0.05483987    0.60347979    0.04860000
opls_144-287    H    0.19041993    0.14217003    0.37805973    0.02870000
opls_185-288    H    0.22579993    0.11011982    0.33266032    0.04430000
opls_185-289    H    0.27133016    0.09820997    0.22964017    0.04430000
opls_185-290    H    0.21151008    0.02700000    0.26764024    0.04430000
opls_185-291    H    0.16121986    0.06686002    0.21950977    0.04430000
opls_185-292    H    0.15369000    0.01528985    0.04299033    0.04430000
opls_185-293    H    0.14420997    0.07586992    0.10529999    0.04430000
opls_185-294    H    0.14779993    0.07759985    0.90809988    0.04430000
opls_185-295    H    0.21293001    0.05796995    0.91786012    0.04430000
opls_185-296    H    0.25804984    0.09088018    0.92394019    0.04430000
opls_185-297    H    0.24600000    0.15293001    0.87060992    0.04430000
opls_185-298    H    0.31658007    0.14809014    0.00143016    0.04430000
opls_185-299    H    0.27010993    0.13195016    0.09996023    0.04430000
opls_146-300    H    0.52748003    0.56341993    0.34714007    0.04860000
opls_146-301    H    0.47278014    0.61100000    0.22580016    0.04860000
opls_146-302    H    0.34290986    0.54900000    0.37638025    0.04860000
opls_146-303    H    0.39752986    0.50128985    0.49611028    0.04860000
opls_146-304    H    0.25509014    0.65552986    0.18914994    0.04860000
opls_146-305    H    0.38006999    0.66037010    0.97810026    0.04860000
opls_146-306    H    0.43241993    0.61606010    0.10844021    0.04860000
opls_144-307    H    0.33689996    0.68514987    0.89030018    0.02870000
opls_146-308    H    0.32158007    0.70926017    0.71946006    0.04860000
opls_168-309    H    0.27620007    0.71399011    0.52742993    0.31700000
