#======================================================================
# Crystal Data Generated By AuToFF
#----------------------------------------------------------------------

data_AuToFF_phase_1

_cell_length_a                         16.0000
_cell_length_b                         16.0000
_cell_length_c                         3.4000
_cell_angle_alpha                      90.00
_cell_angle_beta                       90.00
_cell_angle_gamma                      120.00
_symmetry_space_group_name_H-M_alt     'P 1'
_symmetry_space_group_IT_number        1

loop_
_space_group_symop_operation_xyz
   'x, y, z'

loop_
   _atom_site_label
   _atom_site_type_symbol
   _atom_site_fract_x
   _atom_site_fract_y
   _atom_site_fract_z
   _atom_site_charge
opls_521-0    C    0.33304004    0.58257009    0.00000000    0.09800000
opls_521-1    C    0.41631992    0.66541983    0.00000000    0.09720000
opls_521-2    C    0.41632002    0.49997005    0.00000000    0.16960000
opls_521-3    C    0.49889989    0.58246977    0.00000000    0.17400000
opls_522-4    C    0.41847008    0.41829016    0.00000000    -0.18800000
opls_521-5    C    0.41743000    0.75047000    0.00000000    0.09800000
opls_521-6    C    0.33458006    0.75090012    0.00000000    0.09720000
opls_521-7    C    0.50002995    0.91634991    0.00000000    0.16960000
opls_521-8    C    0.41753001    0.91643001    0.00000000    0.17400000
opls_522-9    C    0.58170985    0.00017970    0.00000000    -0.18800000
opls_521-10    C    0.24952996    0.66695991    0.00000000    0.09800000
opls_521-11    C    0.24910002    0.58368004    0.00000000    0.09720000
opls_521-12    C    0.08365002    0.58368004    0.00000000    0.16960000
opls_521-13    C    0.08357011    0.50110021    0.00000000    0.17400000
opls_522-14    C    0.99982007    0.58153014    0.00000000    -0.18800000
opls_521-15    C    0.66695996    0.41742991    0.00000000    0.09800000
opls_521-16    C    0.58368008    0.33458017    0.00000000    0.09720000
opls_521-17    C    0.58367998    0.50002995    0.00000000    0.16960000
opls_521-18    C    0.50110011    0.41753023    0.00000000    0.17400000
opls_522-19    C    0.58152992    0.58170984    0.00000000    -0.18800000
opls_521-20    C    0.58257000    0.24953000    0.00000000    0.09810000
opls_521-21    C    0.66541994    0.24909988    0.00000000    0.09720000
opls_521-22    C    0.49997005    0.08365009    0.00000000    0.16960000
opls_521-23    C    0.58246999    0.08356999    0.00000000    0.17400000
opls_522-24    C    0.41828979    0.99981958    0.00000000    -0.18800000
opls_521-25    C    0.75047004    0.33304009    0.00000000    0.09800000
opls_521-26    C    0.75089998    0.41631996    0.00000000    0.09720000
opls_521-27    C    0.91634998    0.41631996    0.00000000    0.16980000
opls_521-28    C    0.91642989    0.49889979    0.00000000    0.17400000
opls_522-29    C    0.00017993    0.41846986    0.00000000    -0.18790000
opls_520-30    N    0.33303996    0.49953992    0.00000000    -0.20070000
opls_520-31    N    0.49889997    0.66549994    0.00000000    -0.20170000
opls_520-32    N    0.50045972    0.83349944    0.00000000    -0.20070000
opls_520-33    N    0.33449992    0.83339985    0.00000000    -0.20170000
opls_520-34    N    0.16649996    0.66695991    0.00000000    -0.20070000
opls_520-35    N    0.16660011    0.50110021    0.00000000    -0.20180000
opls_520-36    N    0.66696004    0.50046008    0.00000000    -0.20070000
opls_520-37    N    0.50110003    0.33450006    0.00000000    -0.20180000
opls_520-38    N    0.49953992    0.16649984    0.00000000    -0.20070000
opls_520-39    N    0.66550008    0.16660015    0.00000000    -0.20180000
opls_520-40    N    0.83350004    0.33304009    0.00000000    -0.20070000
opls_520-41    N    0.83339989    0.49889979    0.00000000    -0.20180000
opls_525-42    H    0.34816003    0.34613006    0.00000000    0.05160000
opls_525-43    H    0.65387005    0.00203011    0.00000000    0.05160000
opls_525-44    H    0.99796992    0.65183983    0.00000000    0.05160000
opls_525-45    H    0.65183997    0.65386994    0.00000000    0.05160000
opls_525-46    H    0.34612995    0.99796989    0.00000000    0.05160000
opls_525-47    H    0.00203008    0.34816017    0.00000000    0.05160000
