#======================================================================
# Crystal Data Generated By AuToFF
#----------------------------------------------------------------------

data_AuToFF_phase_1

_cell_length_a                         26.1850
_cell_length_b                         26.1850
_cell_length_c                         4.7770
_cell_angle_alpha                      90.00
_cell_angle_beta                       90.00
_cell_angle_gamma                      120.00
_symmetry_space_group_name_H-M_alt     'P 1'
_symmetry_space_group_IT_number        1

loop_
_space_group_symop_operation_xyz
   'x, y, z'

loop_
   _atom_site_label
   _atom_site_type_symbol
   _atom_site_fract_x
   _atom_site_fract_y
   _atom_site_fract_z
   _atom_site_charge
opls_145-0    C    0.22133998    0.14342008    0.72113042    -0.16320000
opls_145-1    C    0.15962008    0.11257986    0.72620054    -0.12550000
opls_700-2    C    0.12764974    0.06314978    0.55325099    0.06760000
opls_145-3    C    0.15867020    0.04526019    0.37590957    -0.12610000
opls_145-4    C    0.22042013    0.07601002    0.37281976    -0.16150000
opls_145-5    C    0.25200995    0.12507012    0.54794013    0.20600000
opls_700-6    C    0.06218999    0.03075996    0.55513921    0.06460000
opls_145-7    C    0.03115992    0.06166986    0.55519992    -0.16380000
opls_700-8    C    0.60478986    0.29627974    0.39988905    0.07150000
opls_700-9    C    0.53972999    0.25728010    0.42280929    0.06440000
opls_145-10    C    0.50668986    0.27312002    0.59644965    -0.16430000
opls_700-11    C    0.44504987    0.23665998    0.62716977    -0.12300000
opls_700-12    C    0.41616992    0.18217982    0.47876910    0.04180000
opls_145-13    C    0.44996010    0.16633990    0.30930919    -0.12180000
opls_145-14    C    0.51066989    0.20347993    0.27966088    -0.11470000
opls_142-15    C    0.35136986    0.14097001    0.48190915    0.07280000
opls_725-16    C    0.41291979    0.25552986    0.83093992    0.67920000
opls_145-17    C    0.63000975    0.35792975    0.39754030    -0.17250000
opls_145-18    C    0.85657996    0.07791989    0.72113042    -0.16320000
opls_145-19    C    0.88741993    0.04703998    0.72620054    -0.12550000
opls_700-20    C    0.93684999    0.06450005    0.55325099    0.06760000
opls_145-21    C    0.95474003    0.11340978    0.37590957    -0.12610000
opls_145-22    C    0.92399003    0.14441008    0.37281976    -0.16150000
opls_145-23    C    0.87492993    0.12693986    0.54794013    0.20600000
opls_700-24    C    0.96923982    0.03142981    0.55513921    0.06460000
opls_145-25    C    0.93832969    0.96948963    0.55519992    -0.16380000
opls_700-26    C    0.70371987    0.30850981    0.39988905    0.07150000
opls_700-27    C    0.74272003    0.28244979    0.42280929    0.06440000
opls_145-28    C    0.72688012    0.23357005    0.59644965    -0.16430000
opls_700-29    C    0.76333982    0.20838978    0.62716977    -0.12300000
opls_700-30    C    0.81781983    0.23398986    0.47876910    0.04180000
opls_145-31    C    0.83365999    0.28362015    0.30930919    -0.12180000
opls_145-32    C    0.79651994    0.30718997    0.27966088    -0.11470000
opls_142-33    C    0.85902993    0.21039976    0.48190915    0.07280000
opls_725-34    C    0.74446997    0.15738982    0.83093992    0.67920000
opls_145-35    C    0.64207005    0.27207976    0.39754030    -0.17250000
opls_145-36    C    0.92208006    0.77866003    0.72113042    -0.16320000
opls_145-37    C    0.95295977    0.84037972    0.72620054    -0.12550000
opls_700-38    C    0.93550005    0.87234972    0.55325099    0.06760000
opls_145-39    C    0.88659016    0.84133002    0.37590957    -0.12610000
opls_145-40    C    0.85558984    0.77957991    0.37281976    -0.16150000
opls_145-41    C    0.87306013    0.74799002    0.54794013    0.20610000
opls_700-42    C    0.96856997    0.93780979    0.55513921    0.06460000
opls_145-43    C    0.03050994    0.96883963    0.55519992    -0.16370000
opls_700-44    C    0.69149005    0.39521001    0.39988905    0.07150000
opls_700-45    C    0.71754999    0.46027011    0.42280929    0.06440000
opls_145-46    C    0.76643003    0.49330993    0.59644965    -0.16430000
opls_700-47    C    0.79160971    0.55494980    0.62716977    -0.12300000
opls_700-48    C    0.76601003    0.58382987    0.47876910    0.04180000
opls_145-49    C    0.71637992    0.55003995    0.30930919    -0.12180000
opls_145-50    C    0.69281017    0.48933010    0.27966088    -0.11470000
opls_142-51    C    0.78959998    0.64862979    0.48190915    0.07280000
opls_725-52    C    0.84261002    0.58707988    0.83093992    0.67920000
opls_145-53    C    0.72791998    0.36999005    0.39754030    -0.17230000
opls_750-54    N    0.31501998    0.15899013    0.54881097    -0.33830000
opls_750-55    N    0.84100977    0.15602984    0.54881097    -0.33830000
opls_750-56    N    0.84396987    0.68498003    0.54881097    -0.33820000
opls_726-57    F    0.45253004    0.29900013    0.01033075    -0.23180000
opls_726-58    F    0.37490011    0.20851017    0.99607076    -0.22480000
opls_726-59    F    0.38134016    0.27699004    0.69225037    -0.22490000
opls_726-60    F    0.70099984    0.15352994    0.01033075    -0.23180000
opls_726-61    F    0.79148991    0.16639017    0.99607076    -0.22490000
opls_726-62    F    0.72300978    0.10434989    0.69225037    -0.22490000
opls_726-63    F    0.84647012    0.54746993    0.01033075    -0.23170000
opls_726-64    F    0.83360998    0.62509966    0.99607076    -0.22490000
opls_726-65    F    0.89565006    0.61866006    0.69225037    -0.22490000
opls_146-66    H    0.24630009    0.18170004    0.85379946    0.11870000
opls_146-67    H    0.13690015    0.12690017    0.86742098    0.12080000
opls_146-68    H    0.13505991    0.00837990    0.23467030    0.12210000
opls_146-69    H    0.24326005    0.06264001    0.22809923    0.12060000
opls_146-70    H    0.05528008    0.10941981    0.55453004    0.12040000
opls_146-71    H    0.52926007    0.31398014    0.71317982    0.12080000
opls_146-72    H    0.42874985    0.12556004    0.19118903    0.11950000
opls_146-73    H    0.53480011    0.19049005    0.14027004    0.12010000
opls_144-74    H    0.33478983    0.09592986    0.41455935    0.10460000
opls_146-75    H    0.60158000    0.37692972    0.40075989    0.12050000
opls_146-76    H    0.81830008    0.06460016    0.85379946    0.11870000
opls_146-77    H    0.87310008    0.01000005    0.86742098    0.12080000
opls_146-78    H    0.99161999    0.12668013    0.23467030    0.12210000
opls_146-79    H    0.93735988    0.18062009    0.22809923    0.12060000
opls_146-80    H    0.89058010    0.94585984    0.55453004    0.12040000
opls_146-81    H    0.68602002    0.21528006    0.71317982    0.12080000
opls_146-82    H    0.87444007    0.30318986    0.19118903    0.11960000
opls_146-83    H    0.80950983    0.34430971    0.14027004    0.12010000
opls_144-84    H    0.90407007    0.23886002    0.41455935    0.10460000
opls_146-85    H    0.62307006    0.22464995    0.40075989    0.12050000
opls_146-86    H    0.93539983    0.75369980    0.85379946    0.11870000
opls_146-87    H    0.98999976    0.86309977    0.86742098    0.12080000
opls_146-88    H    0.87332009    0.86493997    0.23467030    0.12210000
opls_146-89    H    0.81938007    0.75673990    0.22809923    0.12060000
opls_146-90    H    0.05413998    0.94471991    0.55453004    0.12040000
opls_146-91    H    0.78471991    0.47073980    0.71317982    0.12090000
opls_146-92    H    0.69680986    0.57124966    0.19118903    0.11950000
opls_146-93    H    0.65568984    0.46519980    0.14027004    0.12010000
opls_144-94    H    0.76113988    0.66520968    0.41455935    0.10460000
opls_146-95    H    0.77535010    0.39841989    0.40075989    0.12050000
