#======================================================================
# Crystal Data Generated By AuToFF
#----------------------------------------------------------------------

data_AuToFF_phase_1

_cell_length_a                         34.2600
_cell_length_b                         37.3500
_cell_length_c                         3.7400
_cell_angle_alpha                      108.89
_cell_angle_beta                       83.47
_cell_angle_gamma                      126.28
_symmetry_space_group_name_H-M_alt     'P 1'
_symmetry_space_group_IT_number        1

loop_
_space_group_symop_operation_xyz
   'x, y, z'

loop_
   _atom_site_label
   _atom_site_type_symbol
   _atom_site_fract_x
   _atom_site_fract_y
   _atom_site_fract_z
   _atom_site_charge
opls_750-0    N    0.52540011    0.00681008    0.44798855    -0.13150000
opls_238-1    N    0.18196000    0.60709001    0.42786974    -0.33210000
opls_238-2    N    0.35491977    0.58643001    0.34534060    -0.33260000
opls_238-3    N    0.60392995    0.19740996    0.68893125    -0.33280000
opls_238-4    N    0.65504975    0.39887002    0.65484121    -0.33260000
opls_635-5    N    0.44761981    0.47869001    0.44892034    -0.32820000
opls_635-6    N    0.56236969    0.50662980    0.55140920    -0.32800000
opls_520-7    N    0.05656987    0.49585016    0.25493098    -0.28940000
opls_750-8    N    0.48454967    0.97847990    0.55225008    -0.13150000
opls_238-9    N    0.40602988    0.78787986    0.31121932    -0.33280000
opls_238-10    N    0.82798995    0.37818006    0.57157914    -0.33210000
opls_520-11    N    0.95337979    0.48941984    0.74460880    -0.28940000
opls_262-12    N    0.52262988    0.83543993    0.91316983    -0.29800000
opls_262-13    N    0.48732000    0.14984989    0.08677051    -0.29800000
opls_142-14    C    0.21420989    0.59405000    0.29014031    0.05050000
opls_145-15    C    0.26075008    0.62481011    0.23445991    -0.20470000
opls_280-16    C    0.29310982    0.61013994    0.15366937    0.32570000
opls_145-17    C    0.34526989    0.64498003    0.29819976    -0.14890000
opls_280-18    C    0.36599964    0.69512979    0.38647875    0.35720000
opls_145-19    C    0.33580973    0.70899996    0.30944095    -0.13530000
opls_280-20    C    0.28218006    0.67334016    0.24993111    0.35860000
opls_142-21    C    0.37360997    0.63330014    0.36678039    0.04960000
opls_916-22    C    0.38469981    0.57176992    0.37151039    0.19580000
opls_145-23    C    0.36250996    0.52784001    0.41475076    -0.16470000
opls_145-24    C    0.38995986    0.51191985    0.43607976    -0.12530000
opls_700-25    C    0.44050986    0.53990011    0.41775068    0.03070000
opls_145-26    C    0.46276981    0.58378004    0.37016951    -0.12570000
opls_145-27    C    0.43511972    0.59937992    0.34376110    -0.16240000
opls_634-28    C    0.46950985    0.52321985    0.45126971    0.07650000
opls_145-29    C    0.54405001    0.05440009    0.50758929    0.16690000
opls_145-30    C    0.58936990    0.08357999    0.38979969    -0.16210000
opls_145-31    C    0.60897997    0.13043011    0.44815900    -0.16350000
opls_916-32    C    0.58375972    0.14920991    0.63187873    0.17290000
opls_700-33    C    0.53752977    0.11939983    0.74637864    -0.00110000
opls_145-34    C    0.51805989    0.07237014    0.68397115    -0.19810000
opls_142-35    C    0.65526970    0.23310993    0.70424052    0.04470000
opls_145-36    C    0.67414989    0.27627989    0.69049087    -0.13530000
opls_280-37    C    0.72778003    0.31193006    0.74979049    0.36190000
opls_145-38    C    0.74920968    0.36045993    0.76534975    -0.20440000
opls_280-39    C    0.71684988    0.37513986    0.84637041    0.32620000
opls_145-40    C    0.66468999    0.34031009    0.70189114    -0.13760000
opls_280-41    C    0.64394991    0.29014989    0.61354965    0.36860000
opls_142-42    C    0.63636002    0.35198998    0.63331903    0.05050000
opls_916-43    C    0.62527987    0.41353992    0.62881063    0.19600000
opls_145-44    C    0.64747992    0.45747005    0.58555889    -0.16340000
opls_145-45    C    0.62001985    0.47339987    0.56428103    -0.12530000
opls_700-46    C    0.56948001    0.44542006    0.58263851    0.03100000
opls_145-47    C    0.54720995    0.40154013    0.63021116    -0.12680000
opls_145-48    C    0.57485993    0.38593992    0.65661105    -0.16240000
opls_634-49    C    0.54047978    0.46209987    0.54909107    0.07650000
opls_634-50    C    0.48231996    0.47375001    0.48522907    0.11600000
opls_634-51    C    0.52766977    0.51156998    0.51502092    0.11600000
opls_521-52    C    0.03132002    0.50994007    0.48918067    0.17640000
opls_521-53    C    0.10489981    0.52615006    0.22761066    0.02010000
opls_522-54    C    0.13089968    0.57378985    0.44736924    0.20570000
opls_523-55    C    0.10551971    0.58911998    0.68478931    -0.15820000
opls_522-56    C    0.05585979    0.55739986    0.70714101    -0.16160000
opls_145-57    C    0.46590981    0.93088989    0.49264081    0.17090000
opls_145-58    C    0.42057992    0.90170991    0.61047871    -0.16200000
opls_145-59    C    0.40097983    0.85486008    0.55205975    -0.16350000
opls_916-60    C    0.42618994    0.83608001    0.36824911    0.17290000
opls_700-61    C    0.47241987    0.86588996    0.25372079    -0.00140000
opls_145-62    C    0.49189000    0.91292010    0.31613112    -0.20050000
opls_142-63    C    0.35468984    0.75217995    0.29581914    0.04470000
opls_142-64    C    0.79573996    0.39121994    0.70949890    0.05040000
opls_522-65    C    0.87904982    0.41148012    0.55211088    0.20570000
opls_523-66    C    0.90442992    0.39615011    0.31471070    -0.15810000
opls_522-67    C    0.95408988    0.42785996    0.29241014    -0.16140000
opls_521-68    C    0.97863005    0.47533005    0.51037900    0.17670000
opls_521-69    C    0.90505005    0.45912015    0.77190072    0.02010000
opls_261-70    C    0.50016979    0.84885990    0.06491027    0.24330000
opls_261-71    C    0.50976996    0.13643007    0.93510109    0.24360000
opls_281-72    O    0.25609986    0.68345996    0.19008889    -0.37930000
opls_281-73    O    0.27680958    0.56994984    0.95885048    -0.38090000
opls_281-74    O    0.40729973    0.72492985    0.54269919    -0.34770000
opls_281-75    O    0.60264988    0.26036003    0.45736047    -0.34850000
opls_281-76    O    0.73315988    0.41533002    0.04130008    -0.38090000
opls_281-77    O    0.75386006    0.30181008    0.80930885    -0.37970000
opls_633-78    S    0.53290985    0.55906003    0.50293885    0.08270000
opls_633-79    S    0.47708998    0.42626012    0.49739921    0.08270000
opls_910-80    H    0.19725977    0.64261991    0.56670994    0.27640000
opls_144-81    H    0.20215985    0.55892991    0.26103026    0.10980000
opls_144-82    H    0.41153976    0.66133997    0.46938004    0.10820000
opls_910-83    H    0.31745008    0.56242008    0.35009900    0.27740000
opls_146-84    H    0.32371992    0.50600988    0.43542921    0.12200000
opls_146-85    H    0.37180966    0.47794986    0.47291973    0.12090000
opls_146-86    H    0.50150998    0.60573999    0.34617013    0.12290000
opls_146-87    H    0.45334983    0.63248994    0.29358056    0.12780000
opls_146-88    H    0.60911018    0.06955018    0.24768117    0.12170000
opls_146-89    H    0.64334993    0.15154994    0.34099128    0.11990000
opls_146-90    H    0.48290011    0.04976014    0.77607959    0.12140000
opls_910-91    H    0.58106990    0.20800995    0.76709970    0.27710000
opls_144-92    H    0.68026990    0.22585010    0.75140977    0.11050000
opls_144-93    H    0.59842979    0.32396002    0.53075063    0.11160000
opls_910-94    H    0.69252987    0.42286996    0.65004020    0.27710000
opls_146-95    H    0.68626988    0.47928985    0.56482079    0.12200000
opls_146-96    H    0.63818006    0.50736010    0.52742117    0.11930000
opls_146-97    H    0.50846985    0.37957985    0.65421055    0.12290000
opls_146-98    H    0.55662997    0.35282999    0.70676034    0.12110000
opls_524-99    H    0.12255984    0.51309979    0.02957879    0.12010000
opls_526-100    H    0.12450005    0.62560016    0.85677071    0.11980000
opls_525-101    H    0.03682960    0.56964989    0.89578107    0.12160000
opls_146-102    H    0.40084979    0.91573977    0.75269950    0.12120000
opls_146-103    H    0.36660985    0.83374007    0.65928996    0.12530000
opls_146-104    H    0.52703973    0.93552984    0.22394882    0.12020000
opls_910-105    H    0.42887997    0.77728002    0.23292018    0.27570000
opls_144-106    H    0.32968976    0.75943996    0.24857887    0.11010000
opls_144-107    H    0.80778971    0.42634993    0.73869986    0.11050000
opls_910-108    H    0.81267992    0.34265012    0.43267076    0.27640000
opls_526-109    H    0.88544988    0.35966993    0.14272931    0.11980000
opls_525-110    H    0.97313009    0.41562005    0.10384109    0.12120000
opls_524-111    H    0.88738964    0.47216985    0.96990986    0.12010000
