#======================================================================
# Crystal Data Generated By AuToFF
#----------------------------------------------------------------------

data_AuToFF_phase_1

_cell_length_a                         24.7695
_cell_length_b                         21.2685
_cell_length_c                         5.0168
_cell_angle_alpha                      90.00
_cell_angle_beta                       90.00
_cell_angle_gamma                      90.00
_symmetry_space_group_name_H-M_alt     'P 1'
_symmetry_space_group_IT_number        1

loop_
_space_group_symop_operation_xyz
   'x, y, z'

loop_
   _atom_site_label
   _atom_site_type_symbol
   _atom_site_fract_x
   _atom_site_fract_y
   _atom_site_fract_z
   _atom_site_charge
opls_145-0    C    0.36409980    0.13366011    0.99144076    0.02750000
opls_145-1    C    0.37537011    0.09288995    0.80008970    -0.23300000
opls_145-2    C    0.41945013    0.05991020    0.80378927    -0.23220000
opls_145-3    C    0.45325017    0.06652984    0.99726918    0.03460000
opls_145-4    C    0.44289994    0.10814021    0.18600901    -0.23310000
opls_145-5    C    0.39855992    0.14116981    0.18426088    -0.23310000
opls_145-6    C    0.31672016    0.16819992    0.98735050    0.02850000
opls_145-7    C    0.31473990    0.22870019    0.06871910    -0.23230000
opls_145-8    C    0.27037001    0.26146978    0.05662972    -0.23330000
opls_145-9    C    0.22723995    0.23452006    0.96138973    0.00710000
opls_145-10    C    0.22899009    0.17407998    0.88247090    -0.23220000
opls_145-11    C    0.27312017    0.14114018    0.89662933    -0.23330000
opls_142-12    C    0.81967016    0.26859017    0.06019973    0.08560000
opls_145-13    C    0.95333010    0.43313022    0.99875020    0.02750000
opls_145-14    C    0.94554997    0.61131015    0.82005063    -0.23250000
opls_145-15    C    0.90297987    0.64745986    0.82518936    -0.23360000
opls_145-16    C    0.86782010    0.64030985    0.01487004    0.16290000
opls_145-17    C    0.87515008    0.59527987    0.19258093    -0.23360000
opls_145-18    C    0.91776984    0.55920023    0.18727077    -0.23190000
opls_145-19    C    0.63590020    0.86633989    0.99144076    0.02750000
opls_145-20    C    0.62462989    0.90711005    0.80008970    -0.23300000
opls_145-21    C    0.58054987    0.94008980    0.80378927    -0.23220000
opls_145-22    C    0.54674983    0.93347016    0.99726918    0.03460000
opls_145-23    C    0.55710006    0.89185979    0.18600901    -0.23310000
opls_145-24    C    0.60144008    0.85883019    0.18426088    -0.23310000
opls_145-25    C    0.68327984    0.83180008    0.98735050    0.02850000
opls_145-26    C    0.68526010    0.77129981    0.06871910    -0.23230000
opls_145-27    C    0.72962999    0.73853022    0.05662972    -0.23330000
opls_145-28    C    0.77276005    0.76547994    0.96138973    0.00710000
opls_145-29    C    0.77100991    0.82592002    0.88247090    -0.23230000
opls_145-30    C    0.72687983    0.85885982    0.89662933    -0.23330000
opls_142-31    C    0.18032984    0.73140983    0.06019973    0.08560000
opls_145-32    C    0.04666990    0.56686978    0.99875020    0.02750000
opls_145-33    C    0.05445003    0.38868985    0.82005063    -0.23260000
opls_145-34    C    0.09702013    0.35254014    0.82518936    -0.23360000
opls_145-35    C    0.13217990    0.35969015    0.01487004    0.16290000
opls_145-36    C    0.12484992    0.40472013    0.19258093    -0.23360000
opls_145-37    C    0.08223016    0.44079977    0.18727077    -0.23190000
opls_145-38    C    0.63590020    0.13366011    0.00855924    0.02750000
opls_145-39    C    0.62462989    0.09288995    0.19991030    -0.23300000
opls_145-40    C    0.58054987    0.05991020    0.19621073    -0.23220000
opls_145-41    C    0.54674983    0.06652984    0.00273082    0.03460000
opls_145-42    C    0.55710006    0.10814021    0.81399099    -0.23310000
opls_145-43    C    0.60144008    0.14116981    0.81573912    -0.23310000
opls_145-44    C    0.68327984    0.16819992    0.01264950    0.02850000
opls_145-45    C    0.68526010    0.22870019    0.93128090    -0.23230000
opls_145-46    C    0.72962999    0.26146978    0.94337028    -0.23330000
opls_145-47    C    0.77276005    0.23452006    0.03861027    0.00710000
opls_145-48    C    0.77100991    0.17407998    0.11752910    -0.23230000
opls_145-49    C    0.72687983    0.14114018    0.10337067    -0.23330000
opls_142-50    C    0.18032984    0.26859017    0.93980027    0.08560000
opls_145-51    C    0.04666990    0.43313022    0.00124980    0.02750000
opls_145-52    C    0.05445003    0.61131015    0.17994937    -0.23260000
opls_145-53    C    0.09702013    0.64745986    0.17481064    -0.23360000
opls_145-54    C    0.13217990    0.64030985    0.98512996    0.16290000
opls_145-55    C    0.12484992    0.59527987    0.80741907    -0.23350000
opls_145-56    C    0.08223016    0.55920023    0.81272923    -0.23190000
opls_145-57    C    0.36409980    0.86633989    0.00855924    0.02750000
opls_145-58    C    0.37537011    0.90711005    0.19991030    -0.23300000
opls_145-59    C    0.41945013    0.94008980    0.19621073    -0.23220000
opls_145-60    C    0.45325017    0.93347016    0.00273082    0.03460000
opls_145-61    C    0.44289994    0.89185979    0.81399099    -0.23300000
opls_145-62    C    0.39855992    0.85883019    0.81573912    -0.23300000
opls_145-63    C    0.31672016    0.83180008    0.01264950    0.02850000
opls_145-64    C    0.31473990    0.77129981    0.93128090    -0.23230000
opls_145-65    C    0.27037001    0.73853022    0.94337028    -0.23330000
opls_145-66    C    0.22723995    0.76547994    0.03861027    0.00710000
opls_145-67    C    0.22899009    0.82592002    0.11752910    -0.23230000
opls_145-68    C    0.27312017    0.85885982    0.10337067    -0.23330000
opls_142-69    C    0.81967016    0.73140983    0.93980027    0.08560000
opls_145-70    C    0.95333010    0.56686978    0.00124980    0.02750000
opls_145-71    C    0.94554997    0.38868985    0.17994937    -0.23260000
opls_145-72    C    0.90297987    0.35254014    0.17481064    -0.23360000
opls_145-73    C    0.86782010    0.35969015    0.98512996    0.16290000
opls_145-74    C    0.87515008    0.40472013    0.80741907    -0.23360000
opls_145-75    C    0.91776984    0.44079977    0.81272923    -0.23190000
opls_141-76    C    0.50000000    0.03098996    0.00000000    0.00100000
opls_141-77    C    0.50000000    0.96901004    0.00000000    0.00100000
opls_141-78    C    0.00000000    0.53095000    0.00000000    0.00100000
opls_141-79    C    0.00000000    0.46905000    0.00000000    0.00100000
opls_750-80    N    0.82401017    0.32291981    0.96978951    -0.20250000
opls_750-81    N    0.17598983    0.67708019    0.96978951    -0.20250000
opls_750-82    N    0.17598983    0.32291981    0.03021049    -0.20250000
opls_750-83    N    0.82401017    0.67708019    0.03021049    -0.20260000
opls_146-84    H    0.35047982    0.08711992    0.64504066    0.21060000
opls_146-85    H    0.42764004    0.02941016    0.65528026    0.21080000
opls_146-86    H    0.46883990    0.11431977    0.33627013    0.21050000
opls_146-87    H    0.39090010    0.17177986    0.33572995    0.21020000
opls_146-88    H    0.34771998    0.25116017    0.13647943    0.20950000
opls_146-89    H    0.26975999    0.30815995    0.11832044    0.21020000
opls_146-90    H    0.19611982    0.15229001    0.80955988    0.20940000
opls_146-91    H    0.27304992    0.09429015    0.83744020    0.21010000
opls_144-92    H    0.85095985    0.24648001    0.14728911    0.09880000
opls_146-93    H    0.97244999    0.61779016    0.67424055    0.21050000
opls_146-94    H    0.89741012    0.68022004    0.67947098    0.21040000
opls_146-95    H    0.84805991    0.58919012    0.33790065    0.21050000
opls_146-96    H    0.92336987    0.52565014    0.32848031    0.21060000
opls_146-97    H    0.64952018    0.91288008    0.64504066    0.21050000
opls_146-98    H    0.57235996    0.97058984    0.65528026    0.21080000
opls_146-99    H    0.53116010    0.88568023    0.33627013    0.21050000
opls_146-100    H    0.60909990    0.82822014    0.33572995    0.21020000
opls_146-101    H    0.65228002    0.74883983    0.13647943    0.20950000
opls_146-102    H    0.73024001    0.69184005    0.11832044    0.21020000
opls_146-103    H    0.80388018    0.84770999    0.80955988    0.20940000
opls_146-104    H    0.72695008    0.90570985    0.83744020    0.21010000
opls_144-105    H    0.14904015    0.75351999    0.14728911    0.09880000
opls_146-106    H    0.02755001    0.38220984    0.67424055    0.21050000
opls_146-107    H    0.10258988    0.31977996    0.67947098    0.21030000
opls_146-108    H    0.15194009    0.41080988    0.33790065    0.21050000
opls_146-109    H    0.07663013    0.47434986    0.32848031    0.21060000
opls_146-110    H    0.64952018    0.08711992    0.35495934    0.21050000
opls_146-111    H    0.57235996    0.02941016    0.34471974    0.21090000
opls_146-112    H    0.53116010    0.11431977    0.66372987    0.21050000
opls_146-113    H    0.60909990    0.17177986    0.66427005    0.21020000
opls_146-114    H    0.65228002    0.25116017    0.86352057    0.20940000
opls_146-115    H    0.73024001    0.30815995    0.88167956    0.21020000
opls_146-116    H    0.80388018    0.15229001    0.19044012    0.20940000
opls_146-117    H    0.72695008    0.09429015    0.16255980    0.21010000
opls_144-118    H    0.14904015    0.24648001    0.85271089    0.09880000
opls_146-119    H    0.02755001    0.61779016    0.32575945    0.21050000
opls_146-120    H    0.10258988    0.68022004    0.32052902    0.21030000
opls_146-121    H    0.15194009    0.58919012    0.66209935    0.21050000
opls_146-122    H    0.07663013    0.52565014    0.67151969    0.21060000
opls_146-123    H    0.35047982    0.91288008    0.35495934    0.21060000
opls_146-124    H    0.42764004    0.97058984    0.34471974    0.21080000
opls_146-125    H    0.46883990    0.88568023    0.66372987    0.21050000
opls_146-126    H    0.39090010    0.82822014    0.66427005    0.21030000
opls_146-127    H    0.34771998    0.74883983    0.86352057    0.20940000
opls_146-128    H    0.26975999    0.69184005    0.88167956    0.21020000
opls_146-129    H    0.19611982    0.84770999    0.19044012    0.20940000
opls_146-130    H    0.27304992    0.90570985    0.16255980    0.21010000
opls_144-131    H    0.85095985    0.75351999    0.85271089    0.09890000
opls_146-132    H    0.97244999    0.38220984    0.32575945    0.21050000
opls_146-133    H    0.89741012    0.31977996    0.32052902    0.21030000
opls_146-134    H    0.84805991    0.41080988    0.66209935    0.21050000
opls_146-135    H    0.92336987    0.47434986    0.67151969    0.21060000
