#======================================================================
# Crystal Data Generated By AuToFF
#----------------------------------------------------------------------

data_AuToFF_phase_1

_cell_length_a                         30.7128
_cell_length_b                         30.7128
_cell_length_c                         3.5586
_cell_angle_alpha                      90.00
_cell_angle_beta                       90.00
_cell_angle_gamma                      120.00
_symmetry_space_group_name_H-M_alt     'P 1'
_symmetry_space_group_IT_number        1

loop_
_space_group_symop_operation_xyz
   'x, y, z'

loop_
   _atom_site_label
   _atom_site_type_symbol
   _atom_site_fract_x
   _atom_site_fract_y
   _atom_site_fract_z
   _atom_site_charge
opls_700-0    C    0.64268005    0.27689001    0.50000000    -0.10280000
opls_280-1    C    0.69833005    0.30988000    0.50000000    0.39510000
opls_280-2    C    0.98418989    0.40812999    0.50000000    0.16110000
opls_700-3    C    0.06032999    0.49678003    0.50000000    -0.02200000
opls_916-4    C    0.86617013    0.41846006    0.50000000    0.22990000
opls_145-5    C    0.89864005    0.39879999    0.50000000    -0.19510000
opls_142-6    C    0.77405005    0.39796985    0.50000000    0.06710000
opls_280-7    C    0.03927989    0.44165009    0.50000000    0.16070000
opls_700-8    C    0.95111990    0.43031994    0.50000000    -0.02540000
opls_145-9    C    0.11276986    0.52903989    0.50000000    -0.18340000
opls_700-10    C    0.02792001    0.51698977    0.50000000    -0.02370000
opls_700-11    C    0.72311019    0.36579007    0.50000000    -0.10280000
opls_280-12    C    0.69011987    0.38844999    0.50000000    0.39510000
opls_280-13    C    0.59187001    0.57605984    0.50000000    0.16110000
opls_700-14    C    0.50322009    0.56354991    0.50000000    -0.02200000
opls_916-15    C    0.58154003    0.44770993    0.50000000    0.22990000
opls_145-16    C    0.60119994    0.49984003    0.50000000    -0.19510000
opls_142-17    C    0.60202989    0.37607992    0.50000000    0.06710000
opls_280-18    C    0.55835003    0.59762983    0.50000000    0.16070000
opls_700-19    C    0.56967975    0.52079982    0.50000000    -0.02540000
opls_145-20    C    0.47096001    0.58372995    0.50000000    -0.18340000
opls_700-21    C    0.48300983    0.51092993    0.50000000    -0.02370000
opls_700-22    C    0.63421008    0.35731991    0.50000000    -0.10280000
opls_280-23    C    0.61155008    0.30167001    0.50000000    0.39510000
opls_280-24    C    0.42394009    0.01581017    0.50000000    0.16110000
opls_700-25    C    0.43644974    0.93966968    0.50000000    -0.02200000
opls_916-26    C    0.55229016    0.13383001    0.50000000    0.22990000
opls_145-27    C    0.50016001    0.10135999    0.50000000    -0.19510000
opls_142-28    C    0.62391987    0.22594985    0.50000000    0.06710000
opls_280-29    C    0.40236989    0.96071971    0.50000000    0.16070000
opls_700-30    C    0.47919984    0.04887986    0.50000000    -0.02540000
opls_145-31    C    0.41626994    0.88722979    0.50000000    -0.18340000
opls_700-32    C    0.48906997    0.97207993    0.50000000    -0.02370000
opls_700-33    C    0.35731995    0.72310999    0.50000000    -0.10280000
opls_280-34    C    0.30166995    0.69012000    0.50000000    0.39510000
opls_280-35    C    0.01581011    0.59187001    0.50000000    0.16110000
opls_700-36    C    0.93967001    0.50321997    0.50000000    -0.02200000
opls_916-37    C    0.13382987    0.58153994    0.50000000    0.22990000
opls_145-38    C    0.10135995    0.60120001    0.50000000    -0.19510000
opls_142-39    C    0.22594977    0.60202977    0.50000000    0.06710000
opls_280-40    C    0.96072011    0.55834991    0.50000000    0.16070000
opls_700-41    C    0.04888010    0.56968006    0.50000000    -0.02540000
opls_145-42    C    0.88722995    0.47095974    0.50000000    -0.18340000
opls_700-43    C    0.97207980    0.48300986    0.50000000    -0.02370000
opls_700-44    C    0.27688981    0.63420993    0.50000000    -0.10280000
opls_280-45    C    0.30988013    0.61155001    0.50000000    0.39510000
opls_280-46    C    0.40812980    0.42393978    0.50000000    0.16110000
opls_700-47    C    0.49677991    0.43645009    0.50000000    -0.02200000
opls_916-48    C    0.41845997    0.55229007    0.50000000    0.22990000
opls_145-49    C    0.39880006    0.50015997    0.50000000    -0.19000000
opls_142-50    C    0.39796992    0.62391971    0.50000000    0.06710000
opls_280-51    C    0.44164979    0.40236980    0.50000000    0.16070000
opls_700-52    C    0.43032006    0.47919981    0.50000000    -0.02540000
opls_145-53    C    0.52903999    0.41627005    0.50000000    -0.18340000
opls_700-54    C    0.51699017    0.48907007    0.50000000    -0.02370000
opls_700-55    C    0.36578973    0.64267971    0.50000000    -0.10280000
opls_280-56    C    0.38844992    0.69832999    0.50000000    0.39510000
opls_280-57    C    0.57605991    0.98418983    0.50000000    0.16110000
opls_700-58    C    0.56355007    0.06032994    0.50000000    -0.02200000
opls_916-59    C    0.44770984    0.86616999    0.50000000    0.22990000
opls_145-60    C    0.49983999    0.89864001    0.50000000    -0.19520000
opls_142-61    C    0.37607994    0.77404977    0.50000000    0.06710000
opls_280-62    C    0.59762992    0.03927992    0.50000000    0.16060000
opls_700-63    C    0.52079998    0.95111976    0.50000000    -0.02540000
opls_145-64    C    0.58372987    0.11276984    0.50000000    -0.18340000
opls_700-65    C    0.51093003    0.02792007    0.50000000    -0.02370000
opls_238-66    N    0.81257015    0.38385003    0.50000000    -0.28220000
opls_238-67    N    0.61615005    0.42871983    0.50000000    -0.28220000
opls_238-68    N    0.57128012    0.18743014    0.50000000    -0.28220000
opls_238-69    N    0.18742985    0.61614997    0.50000000    -0.28220000
opls_238-70    N    0.38384976    0.57127980    0.50000000    -0.28220000
opls_238-71    N    0.42871988    0.81256986    0.50000000    -0.28220000
opls_146-72    H    0.88281007    0.35830006    0.50000000    0.13290000
opls_910-73    H    0.80248987    0.34604992    0.50000000    0.31590000
opls_144-74    H    0.78637993    0.43762987    0.50000000    0.13700000
opls_146-75    H    0.13620000    0.51213979    0.50000000    0.13770000
opls_146-76    H    0.64169998    0.52450986    0.50000000    0.13290000
opls_910-77    H    0.65394993    0.45643988    0.50000000    0.31610000
opls_144-78    H    0.56236997    0.34875012    0.50000000    0.13700000
opls_146-79    H    0.48785992    0.62405994    0.50000000    0.13770000
opls_146-80    H    0.47548995    0.11719008    0.50000000    0.13280000
opls_910-81    H    0.54356001    0.19750982    0.50000000    0.31610000
opls_144-82    H    0.65125011    0.21362001    0.50000000    0.13700000
opls_146-83    H    0.37593989    0.86379989    0.50000000    0.13770000
opls_146-84    H    0.11718993    0.64169994    0.50000000    0.13290000
opls_910-85    H    0.19750994    0.65394970    0.50000000    0.31600000
opls_144-86    H    0.21361989    0.56236975    0.50000000    0.13700000
opls_146-87    H    0.86379981    0.48785983    0.50000000    0.13770000
opls_146-88    H    0.35829983    0.47548976    0.50000000    0.13290000
opls_910-89    H    0.34604988    0.54355974    0.50000000    0.31610000
opls_144-90    H    0.43763003    0.65124988    0.50000000    0.13700000
opls_146-91    H    0.51214008    0.37594006    0.50000000    0.13770000
opls_146-92    H    0.52451005    0.88280992    0.50000000    0.13290000
opls_910-93    H    0.45643980    0.80248980    0.50000000    0.31600000
opls_144-94    H    0.34874989    0.78637999    0.50000000    0.13700000
opls_146-95    H    0.62406011    0.13620011    0.50000000    0.13770000
opls_281-96    O    0.42458995    0.35694996    0.50000000    -0.32410000
opls_281-97    O    0.71032000    0.43399991    0.50000000    -0.25370000
opls_281-98    O    0.39688996    0.03437994    0.50000000    -0.32590000
opls_281-99    O    0.64304996    0.06763987    0.50000000    -0.32410000
opls_281-100    O    0.56599988    0.27632005    0.50000000    -0.25370000
opls_281-101    O    0.96562003    0.36250976    0.50000000    -0.32590000
opls_281-102    O    0.93235989    0.57540979    0.50000000    -0.32410000
opls_281-103    O    0.72368011    0.28968004    0.50000000    -0.25370000
opls_281-104    O    0.63748982    0.60310992    0.50000000    -0.32590000
opls_281-105    O    0.57541005    0.64305004    0.50000000    -0.32410000
opls_281-106    O    0.28967981    0.56599971    0.50000000    -0.25380000
opls_281-107    O    0.60310985    0.96561969    0.50000000    -0.32590000
opls_281-108    O    0.35694985    0.93235975    0.50000000    -0.32410000
opls_281-109    O    0.43400012    0.72367995    0.50000000    -0.25370000
opls_281-110    O    0.03437978    0.63748986    0.50000000    -0.32590000
opls_281-111    O    0.06763992    0.42458983    0.50000000    -0.32420000
opls_281-112    O    0.27631989    0.71031996    0.50000000    -0.25370000
opls_281-113    O    0.36251018    0.39689008    0.50000000    -0.32590000
