#======================================================================
# Crystal Data Generated By AuToFF
#----------------------------------------------------------------------

data_AuToFF_phase_1

_cell_length_a                         30.0000
_cell_length_b                         30.0000
_cell_length_c                         3.4000
_cell_angle_alpha                      90.00
_cell_angle_beta                       90.00
_cell_angle_gamma                      120.00
_symmetry_space_group_name_H-M_alt     'P 1'
_symmetry_space_group_IT_number        1

loop_
_space_group_symop_operation_xyz
   'x, y, z'

loop_
   _atom_site_label
   _atom_site_type_symbol
   _atom_site_fract_x
   _atom_site_fract_y
   _atom_site_fract_z
   _atom_site_charge
opls_522-0    C    0.56000005    0.42426011    0.50000000    0.16290000
opls_521-1    C    0.58875006    0.47833012    0.50000000    0.03640000
opls_521-2    C    0.48376007    0.97160014    0.50000000    0.14100000
opls_522-3    C    0.48224004    0.42993007    0.50000000    -0.15620000
opls_523-4    C    0.50635011    0.40051022    0.50000000    -0.15340000
opls_142-5    C    0.59308005    0.22467010    0.50000000    0.07510000
opls_700-6    C    0.63110002    0.28021005    0.50000000    0.06000000
opls_145-7    C    0.61382992    0.31579985    0.50000000    -0.16170000
opls_522-8    C    0.57574003    0.13574006    0.50000000    0.16290000
opls_521-9    C    0.52167009    0.11042017    0.50000000    0.03640000
opls_521-10    C    0.02840008    0.51216015    0.50000000    0.14100000
opls_522-11    C    0.57006993    0.05230986    0.50000000    -0.15620000
opls_523-12    C    0.59948993    0.10583986    0.50000000    -0.15340000
opls_142-13    C    0.77532997    0.36840993    0.50000000    0.07510000
opls_700-14    C    0.71979002    0.35089004    0.50000000    0.06000000
opls_145-15    C    0.68420008    0.29803016    0.50000000    -0.16170000
opls_522-16    C    0.86426011    0.44000022    0.50000000    0.16290000
opls_521-17    C    0.88958005    0.41125009    0.50000000    0.03640000
opls_521-18    C    0.48784005    0.51624009    0.50000000    0.14100000
opls_522-19    C    0.94769003    0.51776007    0.50000000    -0.15620000
opls_523-20    C    0.89415996    0.49364992    0.50000000    -0.15340000
opls_142-21    C    0.63158998    0.40691997    0.50000000    0.07510000
opls_700-22    C    0.64910995    0.36889991    0.50000000    0.06000000
opls_145-23    C    0.70197000    0.38617000    0.50000000    -0.16170000
opls_522-24    C    0.43999995    0.57573989    0.50000000    0.16290000
opls_521-25    C    0.41124994    0.52166988    0.50000000    0.03640000
opls_521-26    C    0.51623993    0.02839986    0.50000000    0.14100000
opls_522-27    C    0.51775996    0.57006993    0.50000000    -0.15620000
opls_523-28    C    0.49365008    0.59949016    0.50000000    -0.15340000
opls_142-29    C    0.40691995    0.77532990    0.50000000    0.07510000
opls_700-30    C    0.36889998    0.71978995    0.50000000    0.06000000
opls_145-31    C    0.38617008    0.68420015    0.50000000    -0.16170000
opls_522-32    C    0.42425997    0.86425994    0.50000000    0.16290000
opls_521-33    C    0.47833011    0.88958021    0.50000000    0.03640000
opls_521-34    C    0.97159992    0.48783985    0.50000000    0.14100000
opls_522-35    C    0.42993007    0.94769014    0.50000000    -0.15620000
opls_523-36    C    0.40051007    0.89416014    0.50000000    -0.15340000
opls_142-37    C    0.22467003    0.63159007    0.50000000    0.07510000
opls_700-38    C    0.28020998    0.64910996    0.50000000    0.06000000
opls_145-39    C    0.31580011    0.70197023    0.50000000    -0.16170000
opls_522-40    C    0.13574008    0.56000017    0.50000000    0.16290000
opls_521-41    C    0.11041995    0.58874991    0.50000000    0.03640000
opls_521-42    C    0.51215995    0.48375991    0.50000000    0.14110000
opls_522-43    C    0.05230997    0.48223993    0.50000000    -0.15620000
opls_523-44    C    0.10584004    0.50635008    0.50000000    -0.15340000
opls_142-45    C    0.36841002    0.59308003    0.50000000    0.07510000
opls_700-46    C    0.35089005    0.63110009    0.50000000    0.06010000
opls_145-47    C    0.29803000    0.61383000    0.50000000    -0.16160000
opls_520-48    N    0.56432997    0.50615994    0.50000000    -0.27750000
opls_750-49    N    0.60791002    0.19080004    0.50000000    -0.32730000
opls_520-50    N    0.49383998    0.05816997    0.50000000    -0.27750000
opls_750-51    N    0.80920010    0.41711020    0.50000000    -0.32730000
opls_520-52    N    0.94183004    0.43567009    0.50000000    -0.27730000
opls_750-53    N    0.58289007    0.39209015    0.50000000    -0.32730000
opls_520-54    N    0.43567003    0.49384006    0.50000000    -0.27750000
opls_750-55    N    0.39208998    0.80919996    0.50000000    -0.32720000
opls_520-56    N    0.50616002    0.94183003    0.50000000    -0.27740000
opls_750-57    N    0.19080009    0.58289018    0.50000000    -0.32730000
opls_520-58    N    0.05816996    0.56432991    0.50000000    -0.27750000
opls_750-59    N    0.41711012    0.60791024    0.50000000    -0.32720000
opls_524-60    H    0.36981002    0.50110004    0.50000000    0.10940000
opls_525-61    H    0.55932999    0.58935997    0.50000000    0.12990000
opls_526-62    H    0.51678007    0.64105015    0.50000000    0.12580000
opls_144-63    H    0.66040008    0.44720016    0.50000000    0.10680000
opls_146-64    H    0.72912994    0.42705987    0.50000000    0.12870000
opls_524-65    H    0.49890008    0.86871015    0.50000000    0.10940000
opls_525-66    H    0.41064004    0.96997009    0.50000000    0.12990000
opls_526-67    H    0.35894998    0.87572996    0.50000000    0.12580000
opls_144-68    H    0.55280004    0.21320008    0.50000000    0.10680000
opls_146-69    H    0.57294004    0.30207007    0.50000000    0.12870000
opls_524-70    H    0.13129009    0.63019019    0.50000000    0.10940000
opls_525-71    H    0.03002997    0.44066994    0.50000000    0.12990000
opls_526-72    H    0.12426995    0.48321989    0.50000000    0.12580000
opls_144-73    H    0.78680008    0.33960015    0.50000000    0.10680000
opls_146-74    H    0.69793003    0.27087006    0.50000000    0.12870000
opls_524-75    H    0.63018998    0.49889996    0.50000000    0.10940000
opls_525-76    H    0.44067001    0.41064003    0.50000000    0.12990000
opls_526-77    H    0.48321993    0.35894985    0.50000000    0.12580000
opls_144-78    H    0.33960011    0.55280023    0.50000000    0.10690000
opls_146-79    H    0.27087006    0.57294013    0.50000000    0.12870000
opls_524-80    H    0.50109992    0.13128985    0.50000000    0.10920000
opls_525-81    H    0.58935996    0.03002991    0.50000000    0.12990000
opls_526-82    H    0.64105002    0.12427004    0.50000000    0.12580000
opls_144-83    H    0.44719996    0.78679992    0.50000000    0.10680000
opls_146-84    H    0.42705996    0.69792993    0.50000000    0.12870000
opls_524-85    H    0.86871010    0.36981020    0.50000000    0.10920000
opls_525-86    H    0.96997003    0.55933006    0.50000000    0.13000000
opls_526-87    H    0.87573005    0.51678011    0.50000000    0.12580000
opls_144-88    H    0.21320012    0.66040023    0.50000000    0.10680000
opls_146-89    H    0.30206997    0.72912994    0.50000000    0.12870000
