#======================================================================
# Crystal Data Generated By AuToFF
#----------------------------------------------------------------------

data_AuToFF_phase_1

_cell_length_a                         35.6565
_cell_length_b                         35.6565
_cell_length_c                         3.4791
_cell_angle_alpha                      90.00
_cell_angle_beta                       90.00
_cell_angle_gamma                      120.00
_symmetry_space_group_name_H-M_alt     'P 1'
_symmetry_space_group_IT_number        1

loop_
_space_group_symop_operation_xyz
   'x, y, z'

loop_
   _atom_site_label
   _atom_site_type_symbol
   _atom_site_fract_x
   _atom_site_fract_y
   _atom_site_fract_z
   _atom_site_charge
opls_180-0    O    0.57019998    0.07881007    0.50000000    -0.21990000
opls_180-1    O    0.92119018    0.49139022    0.50000000    -0.21990000
opls_180-2    O    0.50861000    0.42980003    0.50000000    -0.21990000
opls_180-3    O    0.42980018    0.92119026    0.50000000    -0.21990000
opls_180-4    O    0.07880998    0.50861010    0.50000000    -0.21990000
opls_180-5    O    0.49139000    0.57019997    0.50000000    -0.21990000
opls_520-6    N    0.62294012    0.31172013    0.50000000    -0.42200000
opls_573-7    N    0.50584996    0.07797003    0.50000000    -0.34060000
opls_520-8    N    0.68828012    0.31122012    0.50000000    -0.42200000
opls_573-9    N    0.92202996    0.42787998    0.50000000    -0.34060000
opls_520-10    N    0.68877992    0.37706007    0.50000000    -0.42200000
opls_573-11    N    0.57212008    0.49414999    0.50000000    -0.34060000
opls_520-12    N    0.37706004    0.68828019    0.50000000    -0.42200000
opls_573-13    N    0.49415020    0.92203030    0.50000000    -0.34060000
opls_520-14    N    0.31172004    0.68878020    0.50000000    -0.42200000
opls_573-15    N    0.07797004    0.57212002    0.50000000    -0.34060000
opls_520-16    N    0.31122024    0.62294026    0.50000000    -0.42200000
opls_573-17    N    0.42787992    0.50585001    0.50000000    -0.34060000
opls_531-18    C    0.64439009    0.28927995    0.50000000    0.38510000
opls_700-19    C    0.62112002    0.37992994    0.50000000    -0.00500000
opls_523-20    C    0.57451006    0.21825014    0.50000000    -0.11940000
opls_145-21    C    0.55161009    0.17297016    0.50000000    -0.11820000
opls_700-22    C    0.57379015    0.14966015    0.50000000    -0.04150000
opls_145-23    C    0.61924006    0.17245007    0.50000000    -0.11680000
opls_523-24    C    0.64215997    0.21772002    0.50000000    -0.11940000
opls_572-25    C    0.55182995    0.45009995    0.50000000    0.40060000
opls_507-26    C    0.49904002    0.03771993    0.50000000    0.11670000
opls_575-27    C    0.53805990    0.03882002    0.50000000    0.19230000
opls_145-28    C    0.45926011    0.99899027    0.50000000    -0.23010000
opls_531-29    C    0.71072015    0.35511018    0.50000000    0.38510000
opls_700-30    C    0.62007000    0.24119001    0.50000000    -0.00500000
opls_523-31    C    0.78175017    0.35626014    0.50000000    -0.11980000
opls_145-32    C    0.82703014    0.37864009    0.50000000    -0.11820000
opls_700-33    C    0.85033989    0.42412991    0.50000000    -0.04150000
opls_145-34    C    0.82754991    0.44678998    0.50000000    -0.11680000
opls_523-35    C    0.78227995    0.42444015    0.50000000    -0.11940000
opls_572-36    C    0.54989989    0.10172986    0.50000000    0.40060000
opls_507-37    C    0.96228006    0.46132004    0.50000000    0.11670000
opls_575-38    C    0.96118008    0.49924011    0.50000000    0.19230000
opls_145-39    C    0.00100995    0.46027015    0.50000000    -0.23010000
opls_531-40    C    0.64489020    0.35561019    0.50000000    0.38510000
opls_700-41    C    0.75880999    0.37888005    0.50000000    -0.00500000
opls_523-42    C    0.64373993    0.42549004    0.50000000    -0.11980000
opls_145-43    C    0.62135993    0.44839008    0.50000000    -0.11820000
opls_700-44    C    0.57586996    0.42620994    0.50000000    -0.04150000
opls_145-45    C    0.55321003    0.38075994    0.50000000    -0.11680000
opls_523-46    C    0.57555996    0.35784015    0.50000000    -0.11940000
opls_572-47    C    0.89827017    0.44817019    0.50000000    0.40060000
opls_507-48    C    0.53867992    0.50096002    0.50000000    0.11670000
opls_575-49    C    0.50076018    0.46194020    0.50000000    0.19230000
opls_145-50    C    0.53972998    0.54074023    0.50000000    -0.23030000
opls_531-51    C    0.35560991    0.71072005    0.50000000    0.38510000
opls_700-52    C    0.37887998    0.62007006    0.50000000    -0.00500000
opls_523-53    C    0.42549010    0.78175018    0.50000000    -0.11980000
opls_145-54    C    0.44839007    0.82703016    0.50000000    -0.11820000
opls_700-55    C    0.42621001    0.85034018    0.50000000    -0.04150000
opls_145-56    C    0.38076011    0.82755025    0.50000000    -0.11680000
opls_523-57    C    0.35784003    0.78227998    0.50000000    -0.11940000
opls_572-58    C    0.44817005    0.54990005    0.50000000    0.40050000
opls_507-59    C    0.50095998    0.96228007    0.50000000    0.11670000
opls_575-60    C    0.46194026    0.96118031    0.50000000    0.19230000
opls_145-61    C    0.54074005    0.00101006    0.50000000    -0.23010000
opls_531-62    C    0.28928001    0.64489014    0.50000000    0.38510000
opls_700-63    C    0.37993000    0.75880999    0.50000000    -0.00500000
opls_523-64    C    0.21825000    0.64374019    0.50000000    -0.11980000
opls_145-65    C    0.17297002    0.62136024    0.50000000    -0.11820000
opls_700-66    C    0.14966011    0.57587009    0.50000000    -0.04150000
opls_145-67    C    0.17245009    0.55321002    0.50000000    -0.11680000
opls_523-68    C    0.21772021    0.57556017    0.50000000    -0.11940000
opls_572-69    C    0.45010011    0.89827014    0.50000000    0.40060000
opls_507-70    C    0.03771994    0.53867996    0.50000000    0.11670000
opls_575-71    C    0.03882008    0.50076021    0.50000000    0.19220000
opls_145-72    C    0.99899021    0.53973017    0.50000000    -0.23010000
opls_531-73    C    0.35510996    0.64439013    0.50000000    0.38510000
opls_700-74    C    0.24119001    0.62111995    0.50000000    -0.00500000
opls_523-75    C    0.35626007    0.57450996    0.50000000    -0.11980000
opls_145-76    C    0.37864023    0.55161025    0.50000000    -0.11820000
opls_700-77    C    0.42413004    0.57379006    0.50000000    -0.04150000
opls_145-78    C    0.44678997    0.61924006    0.50000000    -0.11680000
opls_523-79    C    0.42444020    0.64216017    0.50000000    -0.11940000
opls_572-80    C    0.10173000    0.55183013    0.50000000    0.40060000
opls_507-81    C    0.46132008    0.49903998    0.50000000    0.11670000
opls_575-82    C    0.49923998    0.53806013    0.50000000    0.19230000
opls_145-83    C    0.46027018    0.45926010    0.50000000    -0.23010000
opls_526-84    H    0.55661013    0.23542015    0.50000000    0.12780000
opls_146-85    H    0.51652998    0.15605016    0.50000000    0.12510000
opls_146-86    H    0.63683987    0.15493000    0.50000000    0.12370000
opls_526-87    H    0.67722014    0.23447000    0.50000000    0.12780000
opls_146-88    H    0.42858025    0.99815022    0.50000000    0.13420000
opls_526-89    H    0.76458006    0.32119019    0.50000000    0.12780000
opls_146-90    H    0.84395017    0.36048010    0.50000000    0.12510000
opls_146-91    H    0.84507016    0.48191013    0.50000000    0.12370000
opls_526-92    H    0.76552996    0.44275008    0.50000000    0.12780000
opls_146-93    H    0.00185009    0.43043022    0.50000000    0.13420000
opls_526-94    H    0.67880996    0.44338998    0.50000000    0.12780000
opls_146-95    H    0.63952001    0.48347006    0.50000000    0.12510000
opls_146-96    H    0.51809013    0.36316020    0.50000000    0.12370000
opls_526-97    H    0.55724990    0.32277992    0.50000000    0.12780000
opls_146-98    H    0.56956998    0.57142020    0.50000000    0.13420000
opls_526-99    H    0.44339003    0.76458018    0.50000000    0.12780000
opls_146-100    H    0.48347018    0.84395016    0.50000000    0.12510000
opls_146-101    H    0.36316013    0.84507000    0.50000000    0.12370000
opls_526-102    H    0.32277986    0.76553000    0.50000000    0.12780000
opls_146-103    H    0.57141991    0.00185010    0.50000000    0.13420000
opls_526-104    H    0.23542010    0.67881013    0.50000000    0.12780000
opls_146-105    H    0.15604999    0.63952022    0.50000000    0.12510000
opls_146-106    H    0.15493000    0.51809020    0.50000000    0.12370000
opls_526-107    H    0.23447020    0.55725025    0.50000000    0.12780000
opls_146-108    H    0.99815007    0.56957010    0.50000000    0.13420000
opls_526-109    H    0.32119004    0.55661002    0.50000000    0.12780000
opls_146-110    H    0.36047999    0.51652994    0.50000000    0.12510000
opls_146-111    H    0.48191003    0.63684012    0.50000000    0.12370000
opls_526-112    H    0.44275010    0.67722008    0.50000000    0.12780000
opls_146-113    H    0.43043018    0.42858013    0.50000000    0.13420000
