#======================================================================
# Crystal Data Generated By AuToFF
#----------------------------------------------------------------------

data_AuToFF_phase_1

_cell_length_a                         22.0020
_cell_length_b                         22.0020
_cell_length_c                         3.7230
_cell_angle_alpha                      90.00
_cell_angle_beta                       90.00
_cell_angle_gamma                      120.00
_symmetry_space_group_name_H-M_alt     'P 1'
_symmetry_space_group_IT_number        1

loop_
_space_group_symop_operation_xyz
   'x, y, z'

loop_
   _atom_site_label
   _atom_site_type_symbol
   _atom_site_fract_x
   _atom_site_fract_y
   _atom_site_fract_z
   _atom_site_charge
opls_567-0    C    0.06453023    0.00234016    0.27658877    -0.02530000
opls_716-1    C    0.06216005    0.06406011    0.27586892    -0.00730000
opls_567-2    C    0.17794994    0.10272017    0.32983078    -0.01360000
opls_716-3    C    0.12736994    0.12208012    0.30253022    -0.14820000
opls_700-4    C    0.59258998    0.29527996    0.69315874    0.07820000
opls_145-5    C    0.63108004    0.26018025    0.69715015    -0.08160000
opls_700-6    C    0.51472971    0.25517980    0.65806070    0.08380000
opls_145-7    C    0.47928971    0.28427981    0.47421972    -0.07490000
opls_145-8    C    0.40684017    0.24566016    0.42459038    -0.13420000
opls_145-9    C    0.36829010    0.17657021    0.55305130    0.24030000
opls_145-10    C    0.40290012    0.14732010    0.73504969    -0.11110000
opls_145-11    C    0.47519990    0.18635016    0.79294118    -0.07690000
opls_142-12    C    0.25189994    0.15403985    0.38972871    0.09070000
opls_567-13    C    0.99765995    0.06219019    0.27658877    -0.02530000
opls_716-14    C    0.93593991    0.99810017    0.27586892    -0.00730000
opls_567-15    C    0.89727992    0.07522978    0.32983078    -0.01360000
opls_716-16    C    0.87792005    0.00529015    0.30253022    -0.14820000
opls_700-17    C    0.70471988    0.29730995    0.69315874    0.07820000
opls_145-18    C    0.73982016    0.37090020    0.69715015    -0.08160000
opls_700-19    C    0.74481997    0.25954995    0.65806070    0.08380000
opls_145-20    C    0.71572024    0.19501015    0.47421972    -0.07490000
opls_145-21    C    0.75434010    0.16117998    0.42459038    -0.13420000
opls_145-22    C    0.82343026    0.19172008    0.55305130    0.24030000
opls_145-23    C    0.85268013    0.25558024    0.73504969    -0.11110000
opls_145-24    C    0.81365003    0.28884991    0.79294118    -0.07690000
opls_142-25    C    0.84595974    0.09785985    0.38972871    0.09070000
opls_567-26    C    0.93781008    0.93547017    0.27658877    -0.02530000
opls_716-27    C    0.00190031    0.93784024    0.27586892    -0.00730000
opls_567-28    C    0.92477014    0.82205005    0.32983078    -0.01360000
opls_716-29    C    0.99471027    0.87263026    0.30253022    -0.14820000
opls_700-30    C    0.70269014    0.40741009    0.69315874    0.07820000
opls_145-31    C    0.62910007    0.36892007    0.69715015    -0.08160000
opls_700-32    C    0.74045032    0.48527025    0.65806070    0.08380000
opls_145-33    C    0.80499005    0.52071003    0.47421972    -0.07490000
opls_145-34    C    0.83881973    0.59315986    0.42459038    -0.13420000
opls_145-35    C    0.80827990    0.63171023    0.55305130    0.24040000
opls_145-36    C    0.74442001    0.59710018    0.73504969    -0.11100000
opls_145-37    C    0.71115008    0.52479993    0.79294118    -0.07690000
opls_142-38    C    0.90214032    0.74810030    0.38972871    0.09070000
opls_633-39    S    0.14671990    0.01370977    0.31383024    0.09300000
opls_633-40    S    0.98628999    0.13300994    0.31383024    0.09300000
opls_633-41    S    0.86699011    0.85328028    0.31383024    0.09300000
opls_570-42    H    0.14328013    0.17997994    0.30453935    0.04980000
opls_146-43    H    0.50990002    0.34002002    0.36410959    0.04980000
opls_146-44    H    0.37874017    0.27018010    0.27930970    0.04990000
opls_146-45    H    0.37213976    0.09105981    0.83806070    0.04980000
opls_146-46    H    0.50268998    0.16257021    0.95037873    0.04980000
opls_144-47    H    0.27151995    0.21238997    0.35243889    0.02940000
opls_146-48    H    0.60255981    0.20039004    0.70376041    0.04980000
opls_570-49    H    0.82002021    0.96330013    0.30453935    0.04980000
opls_146-50    H    0.65997992    0.16987985    0.36410959    0.04980000
opls_146-51    H    0.72981987    0.10854983    0.27930970    0.04980000
opls_146-52    H    0.90894015    0.28108001    0.83806070    0.04980000
opls_146-53    H    0.83742991    0.34012026    0.95037873    0.04980000
opls_144-54    H    0.78761017    0.05912999    0.35243889    0.02940000
opls_146-55    H    0.79961003    0.40216980    0.70376041    0.04980000
opls_570-56    H    0.03670012    0.85671993    0.30453935    0.04980000
opls_146-57    H    0.83012006    0.49010013    0.36410959    0.04980000
opls_146-58    H    0.89144997    0.62126009    0.27930970    0.04980000
opls_146-59    H    0.71892009    0.62786018    0.83806070    0.04980000
opls_146-60    H    0.65987992    0.49731005    0.95037873    0.04980000
opls_144-61    H    0.94086987    0.72848004    0.35243889    0.02940000
opls_146-62    H    0.59783016    0.39744016    0.70376041    0.04980000
opls_750-63    N    0.29493027    0.13290026    0.48521085    -0.24120000
opls_750-64    N    0.86709999    0.16203018    0.48521085    -0.24120000
opls_750-65    N    0.83797001    0.70507009    0.48521085    -0.24120000
