#======================================================================
# Crystal Data Generated By AuToFF
#----------------------------------------------------------------------

data_AuToFF_phase_1

_cell_length_a                         30.1142
_cell_length_b                         30.1142
_cell_length_c                         3.4583
_cell_angle_alpha                      90.00
_cell_angle_beta                       90.00
_cell_angle_gamma                      120.00
_symmetry_space_group_name_H-M_alt     'P 1'
_symmetry_space_group_IT_number        1

loop_
_space_group_symop_operation_xyz
   'x, y, z'

loop_
   _atom_site_label
   _atom_site_type_symbol
   _atom_site_fract_x
   _atom_site_fract_y
   _atom_site_fract_z
   _atom_site_charge
opls_281-0    O    0.30240011    0.56701008    0.00000000    -0.39450000
opls_281-1    O    0.43299009    0.73539992    0.00000000    -0.39450000
opls_281-2    O    0.26461013    0.69759997    0.00000000    -0.39450000
opls_281-3    O    0.69759989    0.43298992    0.00000000    -0.39450000
opls_281-4    O    0.56700991    0.26461004    0.00000000    -0.39450000
opls_281-5    O    0.73540016    0.30240003    0.00000000    -0.41260000
opls_236-6    O    0.50890992    0.64156013    0.00000000    -0.49190000
opls_236-7    O    0.35844020    0.86736023    0.00000000    -0.49190000
opls_236-8    O    0.13264012    0.49108999    0.00000000    -0.49190000
opls_236-9    O    0.49109008    0.35843987    0.00000000    -0.49190000
opls_236-10    O    0.64155999    0.13264015    0.00000000    -0.49190000
opls_236-11    O    0.86735988    0.50891001    0.00000000    -0.49190000
opls_236-12    O    0.35717012    0.48884993    0.00000000    -0.45090000
opls_236-13    O    0.51114992    0.86831999    0.00000000    -0.45090000
opls_236-14    O    0.13167997    0.64283008    0.00000000    -0.45090000
opls_236-15    O    0.64282988    0.51115007    0.00000000    -0.45090000
opls_236-16    O    0.48885008    0.13168001    0.00000000    -0.45090000
opls_236-17    O    0.86832003    0.35716992    0.00000000    -0.45090000
opls_238-18    N    0.40088002    0.58720014    0.00000000    -0.12880000
opls_238-19    N    0.41280002    0.81368009    0.00000000    -0.12880000
opls_238-20    N    0.18632015    0.59912016    0.00000000    -0.12880000
opls_238-21    N    0.59911998    0.41279986    0.00000000    -0.12880000
opls_238-22    N    0.58719998    0.18631991    0.00000000    -0.12880000
opls_238-23    N    0.81367985    0.40087984    0.00000000    -0.12880000
opls_251-24    N    0.43106012    0.56692994    0.00000000    -0.05170000
opls_251-25    N    0.43306991    0.86413013    0.00000000    -0.05170000
opls_251-26    N    0.13586997    0.56893993    0.00000000    -0.05170000
opls_251-27    N    0.56893988    0.43307006    0.00000000    -0.05170000
opls_251-28    N    0.56693009    0.13586987    0.00000000    -0.05170000
opls_251-29    N    0.86413003    0.43106007    0.00000000    -0.05170000
opls_280-30    C    0.31736011    0.61411997    0.00000000    0.30630000
opls_280-31    C    0.38587992    0.70324000    0.00000000    0.30630000
opls_280-32    C    0.29675998    0.68264003    0.00000000    0.30630000
opls_280-33    C    0.68263989    0.38588003    0.00000000    0.30630000
opls_280-34    C    0.61412008    0.29676000    0.00000000    0.30630000
opls_280-35    C    0.70324002    0.31735997    0.00000000    0.30620000
opls_142-36    C    0.40967018    0.63604012    0.00000000    0.07540000
opls_142-37    C    0.36396005    0.77362013    0.00000000    0.07540000
opls_142-38    C    0.22637992    0.59033017    0.00000000    0.07540000
opls_142-39    C    0.59032982    0.36395988    0.00000000    0.07530000
opls_142-40    C    0.63603995    0.22637987    0.00000000    0.07540000
opls_142-41    C    0.77362027    0.40967022    0.00000000    0.07540000
opls_234-42    C    0.48392985    0.59353995    0.00000000    0.43660000
opls_234-43    C    0.40646015    0.89039006    0.00000000    0.43660000
opls_234-44    C    0.10961000    0.51606999    0.00000000    0.43660000
opls_234-45    C    0.51607015    0.40646005    0.00000000    0.43660000
opls_234-46    C    0.59353985    0.10960994    0.00000000    0.43660000
opls_234-47    C    0.89039000    0.48393001    0.00000000    0.43660000
opls_700-48    C    0.51263017    0.56787013    0.00000000    -0.06650000
opls_700-49    C    0.43212989    0.94475005    0.00000000    -0.06740000
opls_700-50    C    0.05524990    0.48736985    0.00000000    -0.06740000
opls_700-51    C    0.48736983    0.43212987    0.00000000    -0.06740000
opls_700-52    C    0.56787011    0.05524995    0.00000000    -0.06740000
opls_700-53    C    0.94475010    0.51263015    0.00000000    -0.06750000
opls_700-54    C    0.48614021    0.51350018    0.00000000    0.02870000
opls_700-55    C    0.48649997    0.97263001    0.00000000    0.02850000
opls_700-56    C    0.02736998    0.51387020    0.00000000    0.02890000
opls_700-57    C    0.51386994    0.48650021    0.00000000    0.02840000
opls_700-58    C    0.51350003    0.02736999    0.00000000    0.02870000
opls_700-59    C    0.97263022    0.48614016    0.00000000    0.02870000
opls_700-60    C    0.43179003    0.48617007    0.00000000    -0.06200000
opls_700-61    C    0.51382989    0.94563004    0.00000000    -0.06180000
opls_700-62    C    0.05438008    0.56820986    0.00000000    -0.06200000
opls_700-63    C    0.56820997    0.51382993    0.00000000    -0.06180000
opls_700-64    C    0.48617011    0.05437993    0.00000000    -0.06200000
opls_700-65    C    0.94563021    0.43180011    0.00000000    -0.06200000
opls_234-66    C    0.40540984    0.51408991    0.00000000    0.43630000
opls_234-67    C    0.48591007    0.89131990    0.00000000    0.43630000
opls_234-68    C    0.10869005    0.59459019    0.00000000    0.43620000
opls_234-69    C    0.59459016    0.48591009    0.00000000    0.43630000
opls_234-70    C    0.51408994    0.10869007    0.00000000    0.43630000
opls_234-71    C    0.89132010    0.40541019    0.00000000    0.43630000
opls_700-72    C    0.37092002    0.65024007    0.00000000    -0.18920000
opls_700-73    C    0.34975995    0.72068002    0.00000000    -0.18920000
opls_700-74    C    0.27932002    0.62907990    0.00000000    -0.18920000
opls_700-75    C    0.62907998    0.34975993    0.00000000    -0.18920000
opls_700-76    C    0.65024005    0.27931998    0.00000000    -0.18920000
opls_700-77    C    0.72067998    0.37092010    0.00000000    -0.18920000
opls_523-78    C    0.97236021    0.56686015    0.00000000    -0.18350000
opls_523-79    C    0.43314991    0.40550989    0.00000000    -0.18360000
opls_523-80    C    0.59448988    0.02763993    0.00000000    -0.18350000
opls_523-81    C    0.02763998    0.43315020    0.00000000    -0.18350000
opls_523-82    C    0.56686006    0.59449011    0.00000000    -0.18350000
opls_523-83    C    0.40551012    0.97236007    0.00000000    -0.18350000
opls_523-84    C    0.02610016    0.59411012    0.00000000    -0.18350000
opls_523-85    C    0.40589009    0.43198991    0.00000000    -0.18350000
opls_523-86    C    0.56801008    0.97389997    0.00000000    -0.18350000
opls_523-87    C    0.97389984    0.40588988    0.00000000    -0.18350000
opls_523-88    C    0.59410991    0.56801009    0.00000000    -0.18350000
opls_523-89    C    0.43198992    0.02610003    0.00000000    -0.18350000
opls_144-90    H    0.44669009    0.66472991    0.00000000    0.12600000
opls_144-91    H    0.33527005    0.78195996    0.00000000    0.12610000
opls_144-92    H    0.21804019    0.55331013    0.00000000    0.12600000
opls_144-93    H    0.55330991    0.33527009    0.00000000    0.12600000
opls_144-94    H    0.66472995    0.21804004    0.00000000    0.12610000
opls_144-95    H    0.78195981    0.44668987    0.00000000    0.12600000
opls_910-96    H    0.36503019    0.56237006    0.00000000    0.28320000
opls_910-97    H    0.43764011    0.80266000    0.00000000    0.28320000
opls_910-98    H    0.19733999    0.63497990    0.00000000    0.28320000
opls_910-99    H    0.63498010    0.43763991    0.00000000    0.28320000
opls_910-100    H    0.56236985    0.19734000    0.00000000    0.28320000
opls_910-101    H    0.80266001    0.36503007    0.00000000    0.28320000
opls_526-102    H    0.95367996    0.58738994    0.00000000    0.25690000
opls_526-103    H    0.41262016    0.36630002    0.00000000    0.25690000
opls_526-104    H    0.63369988    0.04632001    0.00000000    0.25690000
opls_526-105    H    0.04632004    0.41262003    0.00000000    0.25690000
opls_526-106    H    0.58739013    0.63369998    0.00000000    0.25690000
opls_526-107    H    0.36630012    0.95367999    0.00000000    0.25690000
opls_526-108    H    0.04428018    0.63330005    0.00000000    0.25690000
opls_526-109    H    0.36670002    0.41098005    0.00000000    0.25690000
opls_526-110    H    0.58901980    0.95571990    0.00000000    0.25690000
opls_526-111    H    0.95571982    0.36669995    0.00000000    0.25690000
opls_526-112    H    0.63329998    0.58901995    0.00000000    0.25690000
opls_526-113    H    0.41098020    0.04428010    0.00000000    0.25690000
