#======================================================================
# Crystal Data Generated By AuToFF
#----------------------------------------------------------------------

data_AuToFF_phase_1

_cell_length_a                         18.1105
_cell_length_b                         18.1105
_cell_length_c                         3.4456
_cell_angle_alpha                      90.00
_cell_angle_beta                       90.00
_cell_angle_gamma                      120.00
_symmetry_space_group_name_H-M_alt     'P 1'
_symmetry_space_group_IT_number        1

loop_
_space_group_symop_operation_xyz
   'x, y, z'

loop_
   _atom_site_label
   _atom_site_type_symbol
   _atom_site_fract_x
   _atom_site_fract_y
   _atom_site_fract_z
   _atom_site_charge
opls_145-0    C    0.97281992    0.05877972    0.50000000    -0.16160000
opls_700-1    C    0.91230006    0.97244033    0.50000000    0.06250000
opls_142-2    C    0.82334032    0.94685016    0.50000000    0.11800000
opls_531-3    C    0.41580018    0.70472037    0.50000000    0.40750000
opls_700-4    C    0.50347039    0.74528043    0.50000000    0.03750000
opls_523-5    C    0.54567017    0.69682004    0.50000000    -0.12390000
opls_145-6    C    0.63311999    0.73863996    0.50000000    -0.15380000
opls_145-7    C    0.68098011    0.82798048    0.50000000    0.22460000
opls_145-8    C    0.63908041    0.87569043    0.50000000    -0.15350000
opls_523-9    C    0.55177005    0.83586997    0.50000000    -0.12490000
opls_145-10    C    0.94121976    0.91403997    0.50000000    -0.16160000
opls_700-11    C    0.02756026    0.93986030    0.50000000    0.06250000
opls_142-12    C    0.05315015    0.87648996    0.50000000    0.11800000
opls_531-13    C    0.29528008    0.71108029    0.50000000    0.40750000
opls_700-14    C    0.25472033    0.75819027    0.50000000    0.03750000
opls_523-15    C    0.30317984    0.84884995    0.50000000    -0.12390000
opls_145-16    C    0.26136003    0.89448010    0.50000000    -0.15380000
opls_145-17    C    0.17202000    0.85300000    0.50000000    0.22460000
opls_145-18    C    0.12431027    0.76339043    0.50000000    -0.15350000
opls_523-19    C    0.16413006    0.71590045    0.50000000    -0.12490000
opls_145-20    C    0.08596033    0.02718031    0.50000000    -0.16160000
opls_700-21    C    0.06014000    0.08770000    0.50000000    0.06250000
opls_142-22    C    0.12351008    0.17665988    0.50000000    0.11810000
opls_531-23    C    0.28892006    0.58419997    0.50000000    0.40750000
opls_700-24    C    0.24181015    0.49652994    0.50000000    0.03750000
opls_523-25    C    0.15114999    0.45433001    0.50000000    -0.12390000
opls_145-26    C    0.10551998    0.36687994    0.50000000    -0.15380000
opls_145-27    C    0.14700021    0.31902016    0.50000000    0.22470000
opls_145-28    C    0.23660964    0.36091978    0.50000000    -0.15340000
opls_523-29    C    0.28410020    0.44823022    0.50000000    -0.12490000
opls_520-30    N    0.38035017    0.75405999    0.50000000    -0.37550000
opls_750-31    N    0.76918022    0.86632046    0.50000000    -0.25530000
opls_520-32    N    0.24593991    0.62629024    0.50000000    -0.37560000
opls_750-33    N    0.13368002    0.90285989    0.50000000    -0.25530000
opls_520-34    N    0.37371024    0.61965041    0.50000000    -0.37560000
opls_750-35    N    0.09714008    0.23082029    0.50000000    -0.25540000
opls_146-36    H    0.95067994    0.10512014    0.50000000    0.09090000
opls_144-37    H    0.80613013    0.99709006    0.50000000    0.07180000
opls_526-38    H    0.50932980    0.62674994    0.50000000    0.07680000
opls_146-39    H    0.66585035    0.70136029    0.50000000    0.06780000
opls_146-40    H    0.67499989    0.94561006    0.50000000    0.08410000
opls_526-41    H    0.52025993    0.87434002    0.50000000    0.10700000
opls_146-42    H    0.89488017    0.84556001    0.50000000    0.09090000
opls_144-43    H    0.00291005    0.80904034    0.50000000    0.07180000
opls_526-44    H    0.37325000    0.88258018    0.50000000    0.07680000
opls_146-45    H    0.29864004    0.96449027    0.50000000    0.06780000
opls_146-46    H    0.05438986    0.72938986    0.50000000    0.08410000
opls_526-47    H    0.12566021    0.64592024    0.50000000    0.10700000
opls_146-48    H    0.15443989    0.04931985    0.50000000    0.09090000
opls_144-49    H    0.19096014    0.19387024    0.50000000    0.07180000
opls_526-50    H    0.11742019    0.49066988    0.50000000    0.07680000
opls_146-51    H    0.03550993    0.33415008    0.50000000    0.06780000
opls_146-52    H    0.27061025    0.32500008    0.50000000    0.08410000
opls_526-53    H    0.35408018    0.47974037    0.50000000    0.10700000
