#======================================================================
# Crystal Data Generated By AuToFF
#----------------------------------------------------------------------

data_AuToFF_phase_1

_cell_length_a                         38.7536
_cell_length_b                         38.7536
_cell_length_c                         4.0084
_cell_angle_alpha                      90.00
_cell_angle_beta                       90.00
_cell_angle_gamma                      120.00
_symmetry_space_group_name_H-M_alt     'P 1'
_symmetry_space_group_IT_number        1

loop_
_space_group_symop_operation_xyz
   'x, y, z'

loop_
   _atom_site_label
   _atom_site_type_symbol
   _atom_site_fract_x
   _atom_site_fract_y
   _atom_site_fract_z
   _atom_site_charge
opls_520-0    N    0.62499991    0.31381996    0.94231115    -0.34820000
opls_750-1    N    0.56649003    0.45201004    0.99628031    -0.22260000
opls_520-2    N    0.68617995    0.31118004    0.94231115    -0.34820000
opls_750-3    N    0.54798999    0.11447994    0.99628031    -0.22260000
opls_520-4    N    0.68881988    0.37500000    0.94231115    -0.34820000
opls_750-5    N    0.88551998    0.43351002    0.99628031    -0.22260000
opls_520-6    N    0.37500009    0.68618004    0.94231115    -0.34820000
opls_750-7    N    0.43350997    0.54798996    0.99628031    -0.22260000
opls_520-8    N    0.31382005    0.68881996    0.94231115    -0.34820000
opls_750-9    N    0.45201001    0.88552006    0.99628031    -0.22260000
opls_520-10    N    0.31118012    0.62500000    0.94231115    -0.34820000
opls_750-11    N    0.11448002    0.56648998    0.99628031    -0.22260000
opls_531-12    C    0.64434985    0.29136990    0.94207913    0.35510000
opls_700-13    C    0.62556008    0.38000006    0.94883994    -0.00080000
opls_523-14    C    0.64817013    0.42339012    0.93278116    -0.09230000
opls_145-15    C    0.62787994    0.44622992    0.94637012    -0.11610000
opls_145-16    C    0.58498988    0.42649993    0.97836044    0.21010000
opls_145-17    C    0.56208014    0.38311016    0.98914031    -0.11620000
opls_523-18    C    0.58226008    0.36014999    0.97490021    -0.09230000
opls_142-19    C    0.52838002    0.44086009    0.06956891    0.03480000
opls_700-20    C    0.51458003    0.47165004    0.07411935    -0.07920000
opls_727-21    C    0.54262006    0.51438012    0.07738000    0.21980000
opls_727-22    C    0.52782008    0.54248010    0.07777916    0.21930000
opls_531-23    C    0.70862993    0.35297989    0.94207913    0.35510000
opls_700-24    C    0.61999992    0.24556010    0.94883994    -0.00080000
opls_523-25    C    0.57661015    0.22478011    0.93278116    -0.09230000
opls_145-26    C    0.55377020    0.18165016    0.94637012    -0.11610000
opls_145-27    C    0.57350002    0.15849006    0.97836044    0.21010000
opls_145-28    C    0.61688994    0.17897001    0.98914031    -0.11620000
opls_523-29    C    0.63985005    0.22211009    0.97490021    -0.09230000
opls_142-30    C    0.55913997    0.08751996    0.06956891    0.03480000
opls_700-31    C    0.52835005    0.04293002    0.07411935    -0.07920000
opls_727-32    C    0.48561994    0.02824001    0.07738000    0.21980000
opls_727-33    C    0.45752002    0.98534009    0.07777916    0.21930000
opls_531-34    C    0.64702007    0.35564991    0.94207913    0.35510000
opls_700-35    C    0.75444014    0.37444013    0.94883994    -0.00080000
opls_523-36    C    0.77522013    0.35183007    0.93278116    -0.09230000
opls_145-37    C    0.81834986    0.37211992    0.94637012    -0.11610000
opls_145-38    C    0.84151010    0.41501001    0.97836044    0.21010000
opls_145-39    C    0.82103006    0.43792012    0.98914031    -0.11620000
opls_523-40    C    0.77788987    0.41773992    0.97490021    -0.09230000
opls_142-41    C    0.91248001    0.47161995    0.06956891    0.03480000
opls_700-42    C    0.95706993    0.48541994    0.07411935    -0.07920000
opls_727-43    C    0.97176014    0.45738016    0.07738000    0.21980000
opls_727-44    C    0.01466005    0.47218011    0.07777916    0.21930000
opls_531-45    C    0.35565015    0.70863010    0.94207913    0.35510000
opls_700-46    C    0.37443992    0.61999994    0.94883994    -0.00080000
opls_523-47    C    0.35183002    0.57661017    0.93278116    -0.09230000
opls_145-48    C    0.37212006    0.55377008    0.94637012    -0.11610000
opls_145-49    C    0.41501012    0.57350007    0.97836044    0.21010000
opls_145-50    C    0.43792001    0.61689014    0.98914031    -0.11620000
opls_523-51    C    0.41773992    0.63985001    0.97490021    -0.09230000
opls_142-52    C    0.47161998    0.55913991    0.06956891    0.03480000
opls_700-53    C    0.48541997    0.52834996    0.07411935    -0.07920000
opls_727-54    C    0.45738009    0.48562017    0.07738000    0.21980000
opls_727-55    C    0.47217992    0.45751990    0.07777916    0.21930000
opls_531-56    C    0.29137007    0.64702011    0.94207913    0.35510000
opls_700-57    C    0.38000023    0.75444019    0.94883994    -0.00080000
opls_523-58    C    0.42339000    0.77522019    0.93278116    -0.09230000
opls_145-59    C    0.44622995    0.81835014    0.94637012    -0.11610000
opls_145-60    C    0.42649998    0.84150994    0.97836044    0.21010000
opls_145-61    C    0.38311006    0.82102999    0.98914031    -0.11620000
opls_523-62    C    0.36014995    0.77788991    0.97490021    -0.09230000
opls_142-63    C    0.44086003    0.91248004    0.06956891    0.03480000
opls_700-64    C    0.47164995    0.95706998    0.07411935    -0.07920000
opls_727-65    C    0.51438006    0.97175999    0.07738000    0.21980000
opls_727-66    C    0.54247998    0.01465991    0.07777916    0.21930000
opls_531-67    C    0.35297993    0.64435009    0.94207913    0.35510000
opls_700-68    C    0.24556000    0.62556016    0.94883994    -0.00080000
opls_523-69    C    0.22477987    0.64816993    0.93278116    -0.09230000
opls_145-70    C    0.18165014    0.62788008    0.94637012    -0.11610000
opls_145-71    C    0.15848990    0.58498999    0.97836044    0.21010000
opls_145-72    C    0.17897009    0.56208017    0.98914031    -0.11620000
opls_523-73    C    0.22211013    0.58226008    0.97490021    -0.09230000
opls_142-74    C    0.08751999    0.52838005    0.06956891    0.03480000
opls_700-75    C    0.04293007    0.51458006    0.07411935    -0.07920000
opls_727-76    C    0.02824001    0.54262014    0.07738000    0.21980000
opls_727-77    C    0.98533995    0.52781989    0.07777916    0.21930000
opls_719-78    F    0.44596998    0.41611991    0.08027891    -0.14390000
opls_719-79    F    0.58378985    0.52836992    0.08755114    -0.14390000
opls_719-80    F    0.58387983    0.02984989    0.08027891    -0.14390000
opls_719-81    F    0.47162999    0.05541988    0.08755114    -0.14390000
opls_719-82    F    0.97015004    0.55402990    0.08027891    -0.14390000
opls_719-83    F    0.94458001    0.41620989    0.08755114    -0.14390000
opls_719-84    F    0.55403002    0.58388009    0.08027891    -0.14390000
opls_719-85    F    0.41621015    0.47163008    0.08755114    -0.14390000
opls_719-86    F    0.41612017    0.97015011    0.08027891    -0.14390000
opls_719-87    F    0.52837001    0.94458012    0.08755114    -0.14390000
opls_719-88    F    0.02984996    0.44597010    0.08027891    -0.14390000
opls_719-89    F    0.05541999    0.58379011    0.08755114    -0.14390000
opls_526-90    H    0.68151995    0.43960002    0.91043060    0.04890000
opls_146-91    H    0.64528986    0.47968988    0.93498902    0.04830000
opls_146-92    H    0.52881005    0.36670004    0.00620946    0.12380000
opls_526-93    H    0.56403003    0.32676005    0.98602934    0.04890000
opls_144-94    H    0.50586006    0.40888992    0.12571101    0.04650000
opls_526-95    H    0.56039991    0.24191993    0.91043060    0.04890000
opls_146-96    H    0.52031005    0.16559997    0.93498902    0.04830000
opls_146-97    H    0.63329994    0.16210997    0.00620946    0.12380000
opls_526-98    H    0.67323998    0.23726998    0.98602934    0.04890000
opls_144-99    H    0.59110997    0.09697005    0.12571101    0.04650000
opls_526-100    H    0.75808013    0.31848005    0.91043060    0.04890000
opls_146-101    H    0.83440010    0.35471014    0.93498902    0.04830000
opls_146-102    H    0.83789001    0.47118999    0.00620946    0.12380000
opls_526-103    H    0.76272999    0.43596998    0.98602934    0.04890000
opls_144-104    H    0.90302998    0.49414003    0.12571101    0.04650000
opls_526-105    H    0.31848005    0.56039998    0.91043060    0.04890000
opls_146-106    H    0.35471014    0.52031012    0.93498902    0.04830000
opls_146-107    H    0.47118995    0.63329996    0.00620946    0.12380000
opls_526-108    H    0.43596997    0.67323995    0.98602934    0.04890000
opls_144-109    H    0.49413994    0.59111008    0.12571101    0.04650000
opls_526-110    H    0.43960009    0.75808007    0.91043060    0.04890000
opls_146-111    H    0.47968995    0.83440003    0.93498902    0.04830000
opls_146-112    H    0.36670006    0.83789003    0.00620946    0.12380000
opls_526-113    H    0.32676002    0.76273002    0.98602934    0.04890000
opls_144-114    H    0.40889003    0.90302995    0.12571101    0.04650000
opls_526-115    H    0.24191987    0.68151995    0.91043060    0.04890000
opls_146-116    H    0.16560005    0.64529015    0.93498902    0.04830000
opls_146-117    H    0.16210999    0.52881001    0.00620946    0.12380000
opls_526-118    H    0.23727001    0.56403002    0.98602934    0.04890000
opls_144-119    H    0.09697002    0.50585997    0.12571101    0.04650000
