#======================================================================
# Crystal Data Generated By AuToFF
#----------------------------------------------------------------------

data_AuToFF_phase_1

_cell_length_a                         27.6540
_cell_length_b                         25.4550
_cell_length_c                         5.4780
_cell_angle_alpha                      90.00
_cell_angle_beta                       90.00
_cell_angle_gamma                      90.00
_symmetry_space_group_name_H-M_alt     'P 1'
_symmetry_space_group_IT_number        1

loop_
_space_group_symop_operation_xyz
   'x, y, z'

loop_
   _atom_site_label
   _atom_site_type_symbol
   _atom_site_fract_x
   _atom_site_fract_y
   _atom_site_fract_z
   _atom_site_charge
opls_145-0    C    0.35073009    0.86964015    0.91330047    0.04680000
opls_145-1    C    0.32614016    0.85505009    0.71196057    -0.10840000
opls_145-2    C    0.30402003    0.81142015    0.70594925    -0.11230000
opls_145-3    C    0.30295003    0.78307012    0.90592004    0.04730000
opls_145-4    C    0.33137991    0.79540994    0.09786053    -0.10840000
opls_145-5    C    0.35510017    0.83815007    0.10177072    -0.11240000
opls_141-6    C    0.27455016    0.73936005    0.91470975    0.00170000
opls_145-7    C    0.30252007    0.69611000    0.95836072    0.04850000
opls_145-8    C    0.37085015    0.91756001    0.92972983    0.04680000
opls_145-9    C    0.30279996    0.67562994    0.18037970    -0.11230000
opls_145-10    C    0.32250994    0.63164997    0.21435926    -0.11190000
opls_145-11    C    0.34718992    0.60931998    0.03259949    0.04760000
opls_145-12    C    0.35423013    0.63373993    0.82161920    -0.11190000
opls_145-13    C    0.33206010    0.67705991    0.78539065    -0.10840000
opls_145-14    C    0.36504014    0.56098016    0.06669040    0.04700000
opls_145-15    C    0.33815000    0.52898016    0.19891019    -0.11250000
opls_145-16    C    0.35565018    0.48446985    0.24644943    -0.10840000
opls_145-17    C    0.40024987    0.47072992    0.16169953    0.01380000
opls_145-18    C    0.42634990    0.50169004    0.02110989    -0.11230000
opls_145-19    C    0.40897013    0.54648006    0.97366922    -0.10870000
opls_145-20    C    0.41247993    0.92564997    0.05863089    -0.10840000
opls_145-21    C    0.42920988    0.97083009    0.09535049    -0.11540000
opls_145-22    C    0.40526000    0.00916009    0.99868930    0.01100000
opls_145-23    C    0.36469986    0.00133019    0.86075940    -0.10870000
opls_145-24    C    0.34735011    0.95597996    0.82830960    -0.11350000
opls_142-25    C    0.41870001    0.42419996    0.22389011    0.16610000
opls_142-26    C    0.42230997    0.05712002    0.04163928    0.16560000
opls_145-27    C    0.48287011    0.36835003    0.24897955    0.28700000
opls_145-28    C    0.45538005    0.32709998    0.24353961    -0.11300000
opls_145-29    C    0.47539994    0.28411000    0.31156992    -0.10850000
opls_145-30    C    0.52392999    0.28199018    0.38182001    -0.00680000
opls_145-31    C    0.55110002    0.32307995    0.38029025    -0.11350000
opls_145-32    C    0.53073009    0.36566018    0.31468967    -0.11230000
opls_280-33    C    0.54613004    0.23696995    0.45807046    0.35630000
opls_145-34    C    0.52458993    0.19191004    0.37930997    -0.00700000
opls_145-35    C    0.50108990    0.18822000    0.15851041    -0.10880000
opls_145-36    C    0.47625985    0.14694009    0.10236035    -0.11230000
opls_145-37    C    0.47536993    0.10909016    0.26140015    0.27910000
opls_145-38    C    0.50059015    0.11263995    0.47274005    -0.11190000
opls_145-39    C    0.52524987    0.15331016    0.53119022    -0.11290000
opls_145-40    C    0.64926991    0.13035985    0.91330047    0.04680000
opls_145-41    C    0.67385984    0.14494991    0.71196057    -0.10840000
opls_145-42    C    0.69597997    0.18857985    0.70594925    -0.11230000
opls_145-43    C    0.69704997    0.21692988    0.90592004    0.04730000
opls_145-44    C    0.66862009    0.20459006    0.09786053    -0.10840000
opls_145-45    C    0.64489983    0.16184993    0.10177072    -0.11230000
opls_141-46    C    0.72544984    0.26063995    0.91470975    0.00170000
opls_145-47    C    0.69747993    0.30389000    0.95836072    0.04850000
opls_145-48    C    0.62914985    0.08243999    0.92972983    0.04680000
opls_145-49    C    0.69720004    0.32437006    0.18037970    -0.11230000
opls_145-50    C    0.67749006    0.36835003    0.21435926    -0.11190000
opls_145-51    C    0.65281008    0.39068002    0.03259949    0.04760000
opls_145-52    C    0.64576987    0.36626007    0.82161920    -0.11190000
opls_145-53    C    0.66793990    0.32294009    0.78539065    -0.10840000
opls_145-54    C    0.63495986    0.43901984    0.06669040    0.04700000
opls_145-55    C    0.66185000    0.47101984    0.19891019    -0.11250000
opls_145-56    C    0.64434982    0.51553015    0.24644943    -0.10840000
opls_145-57    C    0.59975013    0.52927008    0.16169953    0.01380000
opls_145-58    C    0.57365010    0.49830996    0.02110989    -0.11230000
opls_145-59    C    0.59102987    0.45351994    0.97366922    -0.10870000
opls_145-60    C    0.58752007    0.07435003    0.05863089    -0.10840000
opls_145-61    C    0.57079012    0.02916991    0.09535049    -0.11530000
opls_145-62    C    0.59474000    0.99083991    0.99868930    0.01100000
opls_145-63    C    0.63530014    0.99866981    0.86075940    -0.10870000
opls_145-64    C    0.65264989    0.04402004    0.82830960    -0.11350000
opls_142-65    C    0.58129999    0.57580004    0.22389011    0.16620000
opls_142-66    C    0.57769003    0.94287998    0.04163928    0.16550000
opls_145-67    C    0.51712989    0.63164997    0.24897955    0.28700000
opls_145-68    C    0.54461995    0.67290002    0.24353961    -0.11300000
opls_145-69    C    0.52460006    0.71589000    0.31156992    -0.10840000
opls_145-70    C    0.47607001    0.71800982    0.38182001    -0.00680000
opls_145-71    C    0.44889998    0.67692005    0.38029025    -0.11350000
opls_145-72    C    0.46926991    0.63433982    0.31468967    -0.11230000
opls_280-73    C    0.45386996    0.76303005    0.45807046    0.35630000
opls_145-74    C    0.47541007    0.80808996    0.37930997    -0.00700000
opls_145-75    C    0.49891010    0.81178000    0.15851041    -0.10870000
opls_145-76    C    0.52374015    0.85305991    0.10236035    -0.11230000
opls_145-77    C    0.52463007    0.89090984    0.26140015    0.27910000
opls_145-78    C    0.49940985    0.88736005    0.47274005    -0.11190000
opls_145-79    C    0.47475013    0.84668984    0.53119022    -0.11290000
opls_145-80    C    0.85073009    0.13035985    0.91330047    0.04680000
opls_145-81    C    0.82614016    0.14494991    0.71196057    -0.10840000
opls_145-82    C    0.80402003    0.18857985    0.70594925    -0.11230000
opls_145-83    C    0.80295003    0.21692988    0.90592004    0.04730000
opls_145-84    C    0.83137991    0.20459006    0.09786053    -0.10840000
opls_145-85    C    0.85510017    0.16184993    0.10177072    -0.11230000
opls_141-86    C    0.77455016    0.26063995    0.91470975    0.00170000
opls_145-87    C    0.80252007    0.30389000    0.95836072    0.04850000
opls_145-88    C    0.87085015    0.08243999    0.92972983    0.04680000
opls_145-89    C    0.80279996    0.32437006    0.18037970    -0.11230000
opls_145-90    C    0.82250994    0.36835003    0.21435926    -0.11190000
opls_145-91    C    0.84718992    0.39068002    0.03259949    0.04760000
opls_145-92    C    0.85423013    0.36626007    0.82161920    -0.11200000
opls_145-93    C    0.83206010    0.32294009    0.78539065    -0.10840000
opls_145-94    C    0.86504014    0.43901984    0.06669040    0.04700000
opls_145-95    C    0.83815000    0.47101984    0.19891019    -0.11250000
opls_145-96    C    0.85565018    0.51553015    0.24644943    -0.10840000
opls_145-97    C    0.90024987    0.52927008    0.16169953    0.01380000
opls_145-98    C    0.92634990    0.49830996    0.02110989    -0.11230000
opls_145-99    C    0.90897013    0.45351994    0.97366922    -0.10870000
opls_145-100    C    0.91247993    0.07435003    0.05863089    -0.10850000
opls_145-101    C    0.92920988    0.02916991    0.09535049    -0.11530000
opls_145-102    C    0.90526000    0.99083991    0.99868930    0.01100000
opls_145-103    C    0.86469986    0.99866981    0.86075940    -0.10880000
opls_145-104    C    0.84735011    0.04402004    0.82830960    -0.11350000
opls_142-105    C    0.91870001    0.57580004    0.22389011    0.16620000
opls_142-106    C    0.92230997    0.94287998    0.04163928    0.16550000
opls_145-107    C    0.98287011    0.63164997    0.24897955    0.28700000
opls_145-108    C    0.95538005    0.67290002    0.24353961    -0.11300000
opls_145-109    C    0.97539994    0.71589000    0.31156992    -0.10850000
opls_145-110    C    0.02392999    0.71800982    0.38182001    -0.00680000
opls_145-111    C    0.05110002    0.67692005    0.38029025    -0.11350000
opls_145-112    C    0.03073009    0.63433982    0.31468967    -0.11230000
opls_280-113    C    0.04613004    0.76303005    0.45807046    0.35630000
opls_145-114    C    0.02458993    0.80808996    0.37930997    -0.00700000
opls_145-115    C    0.00108990    0.81178000    0.15851041    -0.10870000
opls_145-116    C    0.97625985    0.85305991    0.10236035    -0.11230000
opls_145-117    C    0.97536993    0.89090984    0.26140015    0.27910000
opls_145-118    C    0.00059015    0.88736005    0.47274005    -0.11190000
opls_145-119    C    0.02524987    0.84668984    0.53119022    -0.11290000
opls_145-120    C    0.14926991    0.86964015    0.91330047    0.04680000
opls_145-121    C    0.17385984    0.85505009    0.71196057    -0.10850000
opls_145-122    C    0.19597997    0.81142015    0.70594925    -0.11230000
opls_145-123    C    0.19704997    0.78307012    0.90592004    0.04720000
opls_145-124    C    0.16862009    0.79540994    0.09786053    -0.10840000
opls_145-125    C    0.14489983    0.83815007    0.10177072    -0.11230000
opls_141-126    C    0.22544984    0.73936005    0.91470975    0.00170000
opls_145-127    C    0.19747993    0.69611000    0.95836072    0.04850000
opls_145-128    C    0.12914985    0.91756001    0.92972983    0.04680000
opls_145-129    C    0.19720004    0.67562994    0.18037970    -0.11240000
opls_145-130    C    0.17749006    0.63164997    0.21435926    -0.11200000
opls_145-131    C    0.15281008    0.60931998    0.03259949    0.04760000
opls_145-132    C    0.14576987    0.63373993    0.82161920    -0.11190000
opls_145-133    C    0.16793990    0.67705991    0.78539065    -0.10840000
opls_145-134    C    0.13495986    0.56098016    0.06669040    0.04700000
opls_145-135    C    0.16185000    0.52898016    0.19891019    -0.11260000
opls_145-136    C    0.14434982    0.48446985    0.24644943    -0.10840000
opls_145-137    C    0.09975013    0.47072992    0.16169953    0.01380000
opls_145-138    C    0.07365010    0.50169004    0.02110989    -0.11230000
opls_145-139    C    0.09102987    0.54648006    0.97366922    -0.10870000
opls_145-140    C    0.08752007    0.92564997    0.05863089    -0.10840000
opls_145-141    C    0.07079012    0.97083009    0.09535049    -0.11530000
opls_145-142    C    0.09474000    0.00916009    0.99868930    0.01100000
opls_145-143    C    0.13530014    0.00133019    0.86075940    -0.10870000
opls_145-144    C    0.15264989    0.95597996    0.82830960    -0.11350000
opls_142-145    C    0.08129999    0.42419996    0.22389011    0.16610000
opls_142-146    C    0.07769003    0.05712002    0.04163928    0.16560000
opls_145-147    C    0.01712989    0.36835003    0.24897955    0.28700000
opls_145-148    C    0.04461995    0.32709998    0.24353961    -0.11300000
opls_145-149    C    0.02460006    0.28411000    0.31156992    -0.10840000
opls_145-150    C    0.97607001    0.28199018    0.38182001    -0.00680000
opls_145-151    C    0.94889998    0.32307995    0.38029025    -0.11360000
opls_145-152    C    0.96926991    0.36566018    0.31468967    -0.11230000
opls_280-153    C    0.95386996    0.23696995    0.45807046    0.35620000
opls_145-154    C    0.97541007    0.19191004    0.37930997    -0.00700000
opls_145-155    C    0.99891010    0.18822000    0.15851041    -0.10870000
opls_145-156    C    0.02374015    0.14694009    0.10236035    -0.11230000
opls_145-157    C    0.02463007    0.10909016    0.26140015    0.27910000
opls_145-158    C    0.99940985    0.11263995    0.47274005    -0.11190000
opls_145-159    C    0.97475013    0.15331016    0.53119022    -0.11290000
opls_750-160    N    0.46299016    0.41303987    0.18916028    -0.09970000
opls_750-161    N    0.45374015    0.06505009    0.20435926    -0.09970000
opls_750-162    N    0.53700984    0.58696013    0.18916028    -0.09970000
opls_750-163    N    0.54625985    0.93494991    0.20435926    -0.09970000
opls_750-164    N    0.96299016    0.58696013    0.18916028    -0.09970000
opls_750-165    N    0.95374015    0.93494991    0.20435926    -0.09970000
opls_750-166    N    0.03700984    0.41303987    0.18916028    -0.09980000
opls_750-167    N    0.04625985    0.06505009    0.20435926    -0.09970000
opls_281-168    O    0.57995010    0.23694009    0.59315078    -0.19980000
opls_281-169    O    0.42004990    0.76305991    0.59315078    -0.19980000
opls_281-170    O    0.07995010    0.76305991    0.59315078    -0.19980000
opls_281-171    O    0.92004990    0.23694009    0.59315078    -0.19980000
opls_146-172    H    0.32513994    0.88197996    0.54577035    0.06020000
opls_146-173    H    0.28579988    0.79786997    0.53020993    0.06020000
opls_146-174    H    0.33434006    0.76731998    0.25926981    0.06020000
opls_146-175    H    0.37905005    0.84791986    0.26495071    0.06020000
opls_146-176    H    0.28532003    0.69778000    0.33826944    0.06020000
opls_146-177    H    0.31917010    0.61131016    0.39899051    0.06020000
opls_146-178    H    0.37944999    0.61597014    0.67920957    0.06020000
opls_146-179    H    0.33741990    0.69931998    0.60684922    0.06020000
opls_146-180    H    0.30093983    0.54213985    0.26441037    0.06010000
opls_146-181    H    0.33417010    0.45529012    0.36119934    0.06010000
opls_146-182    H    0.46275005    0.48762994    0.94849032    0.06010000
opls_146-183    H    0.43007015    0.57483009    0.85280942    0.06020000
opls_146-184    H    0.43319014    0.89076999    0.13675064    0.06020000
opls_146-185    H    0.46351992    0.97604007    0.20809967    0.06020000
opls_146-186    H    0.34573009    0.03619014    0.77190946    0.06020000
opls_146-187    H    0.31304007    0.95070988    0.71556042    0.06010000
opls_144-188    H    0.39458017    0.39307995    0.31089084    0.03550000
opls_144-189    H    0.40851992    0.09189982    0.93054034    0.03550000
opls_146-190    H    0.41619006    0.33065017    0.18108069    0.06020000
opls_146-191    H    0.45351016    0.24617010    0.31594925    0.06010000
opls_146-192    H    0.59073009    0.31982007    0.43554034    0.06020000
opls_146-193    H    0.55237000    0.40375997    0.30870026    0.06020000
opls_146-194    H    0.50334997    0.22189982    0.02182913    0.06020000
opls_146-195    H    0.45642005    0.14496013    0.92018072    0.06020000
opls_146-196    H    0.50042996    0.07848988    0.60736035    0.06020000
opls_146-197    H    0.54706010    0.15646985    0.70715955    0.06020000
opls_146-198    H    0.67486006    0.11802004    0.54577035    0.06020000
opls_146-199    H    0.71420012    0.20213003    0.53020993    0.06020000
opls_146-200    H    0.66565994    0.23268002    0.25926981    0.06020000
opls_146-201    H    0.62094995    0.15208014    0.26495071    0.06020000
opls_146-202    H    0.71467997    0.30222000    0.33826944    0.06020000
opls_146-203    H    0.68082990    0.38868984    0.39899051    0.06020000
opls_146-204    H    0.62055001    0.38402986    0.67920957    0.06020000
opls_146-205    H    0.66258010    0.30068002    0.60684922    0.06010000
opls_146-206    H    0.69906017    0.45786015    0.26441037    0.06020000
opls_146-207    H    0.66582990    0.54470988    0.36119934    0.06020000
opls_146-208    H    0.53724995    0.51237006    0.94849032    0.06020000
opls_146-209    H    0.56992985    0.42516991    0.85280942    0.06020000
opls_146-210    H    0.56680986    0.10923001    0.13675064    0.06020000
opls_146-211    H    0.53648008    0.02395993    0.20809967    0.06020000
opls_146-212    H    0.65426991    0.96380986    0.77190946    0.06020000
opls_146-213    H    0.68695993    0.04929012    0.71556042    0.06020000
opls_144-214    H    0.60541983    0.60692005    0.31089084    0.03550000
opls_144-215    H    0.59148008    0.90810018    0.93054034    0.03550000
opls_146-216    H    0.58380994    0.66934983    0.18108069    0.06020000
opls_146-217    H    0.54648984    0.75382990    0.31594925    0.06020000
opls_146-218    H    0.40926991    0.68017993    0.43554034    0.06020000
opls_146-219    H    0.44763000    0.59624003    0.30870026    0.06020000
opls_146-220    H    0.49665003    0.77810018    0.02182913    0.06020000
opls_146-221    H    0.54357995    0.85503987    0.92018072    0.06010000
opls_146-222    H    0.49957004    0.92151012    0.60736035    0.06020000
opls_146-223    H    0.45293990    0.84353015    0.70715955    0.06020000
opls_146-224    H    0.82513994    0.11802004    0.54577035    0.06020000
opls_146-225    H    0.78579988    0.20213003    0.53020993    0.06020000
opls_146-226    H    0.83434006    0.23268002    0.25926981    0.06020000
opls_146-227    H    0.87905005    0.15208014    0.26495071    0.06020000
opls_146-228    H    0.78532003    0.30222000    0.33826944    0.06020000
opls_146-229    H    0.81917010    0.38868984    0.39899051    0.06020000
opls_146-230    H    0.87944999    0.38402986    0.67920957    0.06010000
opls_146-231    H    0.83741990    0.30068002    0.60684922    0.06020000
opls_146-232    H    0.80093983    0.45786015    0.26441037    0.06020000
opls_146-233    H    0.83417010    0.54470988    0.36119934    0.06020000
opls_146-234    H    0.96275005    0.51237006    0.94849032    0.06020000
opls_146-235    H    0.93007015    0.42516991    0.85280942    0.06020000
opls_146-236    H    0.93319014    0.10923001    0.13675064    0.06020000
opls_146-237    H    0.96351992    0.02395993    0.20809967    0.06020000
opls_146-238    H    0.84573009    0.96380986    0.77190946    0.06020000
opls_146-239    H    0.81304007    0.04929012    0.71556042    0.06020000
opls_144-240    H    0.89458017    0.60692005    0.31089084    0.03550000
opls_144-241    H    0.90851992    0.90810018    0.93054034    0.03550000
opls_146-242    H    0.91619006    0.66934983    0.18108069    0.06020000
opls_146-243    H    0.95351016    0.75382990    0.31594925    0.06020000
opls_146-244    H    0.09073009    0.68017993    0.43554034    0.06010000
opls_146-245    H    0.05237000    0.59624003    0.30870026    0.06020000
opls_146-246    H    0.00334997    0.77810018    0.02182913    0.06020000
opls_146-247    H    0.95642005    0.85503987    0.92018072    0.06020000
opls_146-248    H    0.00042996    0.92151012    0.60736035    0.06020000
opls_146-249    H    0.04706010    0.84353015    0.70715955    0.06020000
opls_146-250    H    0.17486006    0.88197996    0.54577035    0.06020000
opls_146-251    H    0.21420012    0.79786997    0.53020993    0.06020000
opls_146-252    H    0.16565994    0.76731998    0.25926981    0.06010000
opls_146-253    H    0.12094995    0.84791986    0.26495071    0.06020000
opls_146-254    H    0.21467997    0.69778000    0.33826944    0.06020000
opls_146-255    H    0.18082990    0.61131016    0.39899051    0.06020000
opls_146-256    H    0.12055001    0.61597014    0.67920957    0.06020000
opls_146-257    H    0.16258010    0.69931998    0.60684922    0.06020000
opls_146-258    H    0.19906017    0.54213985    0.26441037    0.06020000
opls_146-259    H    0.16582990    0.45529012    0.36119934    0.06020000
opls_146-260    H    0.03724995    0.48762994    0.94849032    0.06010000
opls_146-261    H    0.06992985    0.57483009    0.85280942    0.06020000
opls_146-262    H    0.06680986    0.89076999    0.13675064    0.06020000
opls_146-263    H    0.03648008    0.97604007    0.20809967    0.06020000
opls_146-264    H    0.15426991    0.03619014    0.77190946    0.06020000
opls_146-265    H    0.18695993    0.95070988    0.71556042    0.06020000
opls_144-266    H    0.10541983    0.39307995    0.31089084    0.03540000
opls_144-267    H    0.09148008    0.09189982    0.93054034    0.03550000
opls_146-268    H    0.08380994    0.33065017    0.18108069    0.06020000
opls_146-269    H    0.04648984    0.24617010    0.31594925    0.06020000
opls_146-270    H    0.90926991    0.31982007    0.43554034    0.06020000
opls_146-271    H    0.94763000    0.40375997    0.30870026    0.06020000
opls_146-272    H    0.99665003    0.22189982    0.02182913    0.06020000
opls_146-273    H    0.04357995    0.14496013    0.92018072    0.06020000
opls_146-274    H    0.99957004    0.07848988    0.60736035    0.06020000
opls_146-275    H    0.95293990    0.15646985    0.70715955    0.06020000
