#======================================================================
# Crystal Data Generated By AuToFF
#----------------------------------------------------------------------

data_AuToFF_phase_1

_cell_length_a                         52.8112
_cell_length_b                         52.8112
_cell_length_c                         20.4714
_cell_angle_alpha                      90.00
_cell_angle_beta                       90.00
_cell_angle_gamma                      120.00
_symmetry_space_group_name_H-M_alt     'P 1'
_symmetry_space_group_IT_number        1

loop_
_space_group_symop_operation_xyz
   'x, y, z'

loop_
   _atom_site_label
   _atom_site_type_symbol
   _atom_site_fract_x
   _atom_site_fract_y
   _atom_site_fract_z
   _atom_site_charge
opls_700-0    C    0.40079011    0.62437008    0.57193011    0.06310000
opls_145-1    C    0.43096008    0.64208004    0.58158993    -0.12620000
opls_145-2    C    0.44644989    0.63149994    0.61658020    -0.13400000
opls_700-3    C    0.43193994    0.60314996    0.64283977    0.06200000
opls_145-4    C    0.40159997    0.58549007    0.63330012    -0.14050000
opls_145-5    C    0.38616003    0.59606995    0.59807976    -0.12550000
opls_142-6    C    0.44874994    0.59256001    0.68008001    0.06450000
opls_145-7    C    0.43212000    0.53120004    0.78795002    -0.18330000
opls_145-8    C    0.44950998    0.55444002    0.74599002    0.17720000
opls_145-9    C    0.47957005    0.56395007    0.74085993    -0.18220000
opls_145-10    C    0.49193003    0.55082994    0.77855007    -0.12950000
opls_700-11    C    0.47456005    0.52814008    0.82189982    0.06740000
opls_145-12    C    0.44450011    0.51815010    0.82575007    -0.12740000
opls_700-13    C    0.48802990    0.51485990    0.93071993    0.02400000
opls_700-14    C    0.48769993    0.51429995    0.86162988    0.03130000
opls_700-15    C    0.38444009    0.63541000    0.53464980    0.02790000
opls_145-16    C    0.36803995    0.64534991    0.56904999    -0.17110000
opls_145-17    C    0.47730005    0.53034010    0.96603994    -0.13100000
opls_700-18    C    0.35198995    0.65530993    0.53457995    0.05330000
opls_145-19    C    0.50000000    0.50000000    0.82851979    -0.13670000
opls_700-20    C    0.50000000    0.50000000    0.03466983    0.02440000
opls_701-21    C    0.33333005    0.66666995    0.43428002    -0.08250000
opls_700-22    C    0.37563008    0.77641998    0.57193011    0.06310000
opls_145-23    C    0.35791991    0.78888001    0.58158993    -0.12620000
opls_145-24    C    0.36849990    0.81494994    0.61658020    -0.13400000
opls_700-25    C    0.39685008    0.82879007    0.64283977    0.06200000
opls_145-26    C    0.41451011    0.81611008    0.63330012    -0.14040000
opls_145-27    C    0.40393005    0.79009000    0.59807976    -0.12550000
opls_142-28    C    0.40743992    0.85619003    0.68008001    0.06450000
opls_145-29    C    0.46880002    0.90091994    0.78795002    -0.18340000
opls_145-30    C    0.44556006    0.89507004    0.74599002    0.17720000
opls_145-31    C    0.43605003    0.91562000    0.74085993    -0.18220000
opls_145-32    C    0.44917008    0.94110002    0.77855007    -0.12950000
opls_700-33    C    0.47185987    0.94641992    0.82189982    0.06740000
opls_145-34    C    0.48185007    0.92635010    0.82575007    -0.12740000
opls_700-35    C    0.48514007    0.97317006    0.93071993    0.02400000
opls_700-36    C    0.48570006    0.97340007    0.86162988    0.03130000
opls_700-37    C    0.36459006    0.74903008    0.53464980    0.02790000
opls_145-38    C    0.35464997    0.72268991    0.56904999    -0.17100000
opls_145-39    C    0.46965997    0.94695998    0.96603994    -0.13100000
opls_700-40    C    0.34469007    0.69668011    0.53457995    0.05340000
opls_145-41    C    0.50000000    0.00000000    0.82851979    -0.13670000
opls_700-42    C    0.50000000    0.00000000    0.03466983    0.02440000
opls_700-43    C    0.22358000    0.59920994    0.57193011    0.06310000
opls_145-44    C    0.21112001    0.56903995    0.58158993    -0.12620000
opls_145-45    C    0.18504990    0.55354991    0.61658020    -0.13390000
opls_700-46    C    0.17120998    0.56805997    0.64283977    0.06200000
opls_145-47    C    0.18389003    0.59840007    0.63330012    -0.14050000
opls_145-48    C    0.20991011    0.61384004    0.59807976    -0.12540000
opls_142-49    C    0.14380995    0.55124996    0.68008001    0.06450000
opls_145-50    C    0.09907998    0.56788003    0.78795002    -0.18340000
opls_145-51    C    0.10492996    0.55048994    0.74599002    0.17720000
opls_145-52    C    0.08437991    0.52042993    0.74085993    -0.18220000
opls_145-53    C    0.05890009    0.50807004    0.77855007    -0.12950000
opls_700-54    C    0.05358009    0.52544001    0.82189982    0.06740000
opls_145-55    C    0.07364993    0.55550002    0.82575007    -0.12730000
opls_700-56    C    0.02683003    0.51197004    0.93071993    0.02400000
opls_700-57    C    0.02660001    0.51229998    0.86162988    0.03130000
opls_700-58    C    0.25097004    0.61555992    0.53464980    0.02790000
opls_145-59    C    0.27730997    0.63195997    0.56904999    -0.17110000
opls_145-60    C    0.05303998    0.52269992    0.96603994    -0.13090000
opls_700-61    C    0.30331998    0.64800996    0.53457995    0.05340000
opls_145-62    C    0.00000000    0.50000000    0.82851979    -0.13660000
opls_700-63    C    0.00000000    0.50000000    0.03466983    0.02440000
opls_700-64    C    0.59920989    0.37562992    0.57193011    0.06310000
opls_145-65    C    0.56903992    0.35791996    0.58158993    -0.12620000
opls_145-66    C    0.55355011    0.36850006    0.61658020    -0.13400000
opls_700-67    C    0.56806006    0.39685004    0.64283977    0.06200000
opls_145-68    C    0.59840003    0.41450993    0.63330012    -0.14050000
opls_145-69    C    0.61383997    0.40393005    0.59807976    -0.12550000
opls_142-70    C    0.55125006    0.40743999    0.68008001    0.06460000
opls_145-71    C    0.56788000    0.46879996    0.78795002    -0.18330000
opls_145-72    C    0.55049002    0.44555998    0.74599002    0.17710000
opls_145-73    C    0.52042995    0.43604993    0.74085993    -0.18220000
opls_145-74    C    0.50806997    0.44917006    0.77855007    -0.12950000
opls_700-75    C    0.52543995    0.47185992    0.82189982    0.06740000
opls_145-76    C    0.55549989    0.48184990    0.82575007    -0.12740000
opls_700-77    C    0.51197010    0.48514010    0.93071993    0.02400000
opls_700-78    C    0.51230007    0.48570005    0.86162988    0.03130000
opls_700-79    C    0.61555991    0.36459000    0.53464980    0.02790000
opls_145-80    C    0.63196005    0.35465009    0.56904999    -0.17110000
opls_145-81    C    0.52269995    0.46965990    0.96603994    -0.13100000
opls_700-82    C    0.64801005    0.34469007    0.53457995    0.05330000
opls_701-83    C    0.66666995    0.33333005    0.43428002    -0.08250000
opls_700-84    C    0.62436992    0.22358002    0.57193011    0.06310000
opls_145-85    C    0.64208009    0.21111999    0.58158993    -0.12620000
opls_145-86    C    0.63150010    0.18505006    0.61658020    -0.13390000
opls_700-87    C    0.60314992    0.17120993    0.64283977    0.06200000
opls_145-88    C    0.58548989    0.18388992    0.63330012    -0.14050000
opls_145-89    C    0.59606995    0.20991000    0.59807976    -0.12550000
opls_142-90    C    0.59256008    0.14380997    0.68008001    0.06450000
opls_145-91    C    0.53119998    0.09908006    0.78795002    -0.18330000
opls_145-92    C    0.55443994    0.10492996    0.74599002    0.17720000
opls_145-93    C    0.56394997    0.08438000    0.74085993    -0.18220000
opls_145-94    C    0.55082992    0.05889998    0.77855007    -0.12950000
opls_700-95    C    0.52814013    0.05358008    0.82189982    0.06740000
opls_145-96    C    0.51814993    0.07364990    0.82575007    -0.12740000
opls_700-97    C    0.51485993    0.02682994    0.93071993    0.02400000
opls_700-98    C    0.51429994    0.02659993    0.86162988    0.03130000
opls_700-99    C    0.63540994    0.25096992    0.53464980    0.02790000
opls_145-100    C    0.64535003    0.27731009    0.56904999    -0.17110000
opls_145-101    C    0.53034003    0.05304002    0.96603994    -0.13100000
opls_700-102    C    0.65531004    0.30332011    0.53457995    0.05340000
opls_700-103    C    0.77642000    0.40079006    0.57193011    0.06310000
opls_145-104    C    0.78887999    0.43096005    0.58158993    -0.12620000
opls_145-105    C    0.81495010    0.44645009    0.61658020    -0.13400000
opls_700-106    C    0.82879002    0.43194003    0.64283977    0.06200000
opls_145-107    C    0.81610997    0.40159993    0.63330012    -0.14040000
opls_145-108    C    0.79008989    0.38615996    0.59807976    -0.12550000
opls_142-109    C    0.85619005    0.44875004    0.68008001    0.06450000
opls_145-110    C    0.90092002    0.43211997    0.78795002    -0.18330000
opls_145-111    C    0.89507004    0.44951006    0.74599002    0.17710000
opls_145-112    C    0.91562009    0.47957007    0.74085993    -0.18220000
opls_145-113    C    0.94109991    0.49192996    0.77855007    -0.12940000
opls_700-114    C    0.94641991    0.47455999    0.82189982    0.06740000
opls_145-115    C    0.92635007    0.44449998    0.82575007    -0.12740000
opls_700-116    C    0.97316997    0.48802996    0.93071993    0.02400000
opls_700-117    C    0.97339999    0.48770002    0.86162988    0.03130000
opls_700-118    C    0.74902996    0.38444008    0.53464980    0.02790000
opls_145-119    C    0.72269003    0.36804003    0.56904999    -0.17110000
opls_145-120    C    0.94696002    0.47730008    0.96603994    -0.13100000
opls_700-121    C    0.69668002    0.35199004    0.53457995    0.05340000
opls_700-122    C    0.59920989    0.37562992    0.42806989    0.06310000
opls_145-123    C    0.56903992    0.35791996    0.41841007    -0.12620000
opls_145-124    C    0.55355011    0.36850006    0.38341980    -0.13400000
opls_700-125    C    0.56806006    0.39685004    0.35716023    0.06200000
opls_145-126    C    0.59840003    0.41450993    0.36669988    -0.14050000
opls_145-127    C    0.61383997    0.40393005    0.40192024    -0.12550000
opls_142-128    C    0.55125006    0.40743999    0.31991999    0.06450000
opls_145-129    C    0.56788000    0.46879996    0.21204998    -0.18340000
opls_145-130    C    0.55049002    0.44555998    0.25400998    0.17710000
opls_145-131    C    0.52042995    0.43604993    0.25914007    -0.18220000
opls_145-132    C    0.50806997    0.44917006    0.22144993    -0.12950000
opls_700-133    C    0.52543995    0.47185992    0.17810018    0.06740000
opls_145-134    C    0.55549989    0.48184990    0.17424993    -0.12740000
opls_700-135    C    0.51197010    0.48514010    0.06928007    0.02400000
opls_700-136    C    0.51230007    0.48570005    0.13837012    0.03130000
opls_700-137    C    0.61555991    0.36459000    0.46535020    0.02790000
opls_145-138    C    0.63196005    0.35465009    0.43095001    -0.17100000
opls_145-139    C    0.52269995    0.46965990    0.03396006    -0.13100000
opls_700-140    C    0.64801005    0.34469007    0.46542005    0.05330000
opls_145-141    C    0.50000000    0.50000000    0.17148021    -0.13670000
opls_700-142    C    0.50000000    0.50000000    0.96533017    0.02440000
opls_701-143    C    0.66666995    0.33333005    0.56571998    -0.08250000
opls_700-144    C    0.62436992    0.22358002    0.42806989    0.06310000
opls_145-145    C    0.64208009    0.21111999    0.41841007    -0.12620000
opls_145-146    C    0.63150010    0.18505006    0.38341980    -0.13400000
opls_700-147    C    0.60314992    0.17120993    0.35716023    0.06200000
opls_145-148    C    0.58548989    0.18388992    0.36669988    -0.14050000
opls_145-149    C    0.59606995    0.20991000    0.40192024    -0.12550000
opls_142-150    C    0.59256008    0.14380997    0.31991999    0.06450000
opls_145-151    C    0.53119998    0.09908006    0.21204998    -0.18340000
opls_145-152    C    0.55443994    0.10492996    0.25400998    0.17710000
opls_145-153    C    0.56394997    0.08438000    0.25914007    -0.18220000
opls_145-154    C    0.55082992    0.05889998    0.22144993    -0.12950000
opls_700-155    C    0.52814013    0.05358008    0.17810018    0.06750000
opls_145-156    C    0.51814993    0.07364990    0.17424993    -0.12740000
opls_700-157    C    0.51485993    0.02682994    0.06928007    0.02400000
opls_700-158    C    0.51429994    0.02659993    0.13837012    0.03130000
opls_700-159    C    0.63540994    0.25096992    0.46535020    0.02800000
opls_145-160    C    0.64535003    0.27731009    0.43095001    -0.17110000
opls_145-161    C    0.53034003    0.05304002    0.03396006    -0.13090000
opls_700-162    C    0.65531004    0.30332011    0.46542005    0.05340000
opls_145-163    C    0.50000000    0.00000000    0.17148021    -0.13670000
opls_700-164    C    0.50000000    0.00000000    0.96533017    0.02440000
opls_700-165    C    0.77642000    0.40079006    0.42806989    0.06310000
opls_145-166    C    0.78887999    0.43096005    0.41841007    -0.12620000
opls_145-167    C    0.81495010    0.44645009    0.38341980    -0.13400000
opls_700-168    C    0.82879002    0.43194003    0.35716023    0.06210000
opls_145-169    C    0.81610997    0.40159993    0.36669988    -0.14050000
opls_145-170    C    0.79008989    0.38615996    0.40192024    -0.12550000
opls_142-171    C    0.85619005    0.44875004    0.31991999    0.06450000
opls_145-172    C    0.90092002    0.43211997    0.21204998    -0.18340000
opls_145-173    C    0.89507004    0.44951006    0.25400998    0.17710000
opls_145-174    C    0.91562009    0.47957007    0.25914007    -0.18220000
opls_145-175    C    0.94109991    0.49192996    0.22144993    -0.12950000
opls_700-176    C    0.94641991    0.47455999    0.17810018    0.06740000
opls_145-177    C    0.92635007    0.44449998    0.17424993    -0.12740000
opls_700-178    C    0.97316997    0.48802996    0.06928007    0.02400000
opls_700-179    C    0.97339999    0.48770002    0.13837012    0.03130000
opls_700-180    C    0.74902996    0.38444008    0.46535020    0.02790000
opls_145-181    C    0.72269003    0.36804003    0.43095001    -0.17100000
opls_145-182    C    0.94696002    0.47730008    0.03396006    -0.13100000
opls_700-183    C    0.69668002    0.35199004    0.46542005    0.05340000
opls_145-184    C    1.00000000    0.50000000    0.17148021    -0.13670000
opls_700-185    C    1.00000000    0.50000000    0.96533017    0.02440000
opls_700-186    C    0.40079011    0.62437008    0.42806989    0.06320000
opls_145-187    C    0.43096008    0.64208004    0.41841007    -0.12620000
opls_145-188    C    0.44644989    0.63149994    0.38341980    -0.13400000
opls_700-189    C    0.43193994    0.60314996    0.35716023    0.06200000
opls_145-190    C    0.40159997    0.58549007    0.36669988    -0.14050000
opls_145-191    C    0.38616003    0.59606995    0.40192024    -0.12540000
opls_142-192    C    0.44874994    0.59256001    0.31991999    0.06460000
opls_145-193    C    0.43212000    0.53120004    0.21204998    -0.18330000
opls_145-194    C    0.44950998    0.55444002    0.25400998    0.17710000
opls_145-195    C    0.47957005    0.56395007    0.25914007    -0.18220000
opls_145-196    C    0.49193003    0.55082994    0.22144993    -0.12950000
opls_700-197    C    0.47456005    0.52814008    0.17810018    0.06740000
opls_145-198    C    0.44450011    0.51815010    0.17424993    -0.12730000
opls_700-199    C    0.48802990    0.51485990    0.06928007    0.02400000
opls_700-200    C    0.48769993    0.51429995    0.13837012    0.03130000
opls_700-201    C    0.38444009    0.63541000    0.46535020    0.02790000
opls_145-202    C    0.36803995    0.64534991    0.43095001    -0.17100000
opls_145-203    C    0.47730005    0.53034010    0.03396006    -0.13100000
opls_700-204    C    0.35198995    0.65530993    0.46542005    0.05340000
opls_701-205    C    0.33333005    0.66666995    0.56571998    -0.08250000
opls_700-206    C    0.37563008    0.77641998    0.42806989    0.06310000
opls_145-207    C    0.35791991    0.78888001    0.41841007    -0.12620000
opls_145-208    C    0.36849990    0.81494994    0.38341980    -0.13400000
opls_700-209    C    0.39685008    0.82879007    0.35716023    0.06200000
opls_145-210    C    0.41451011    0.81611008    0.36669988    -0.14050000
opls_145-211    C    0.40393005    0.79009000    0.40192024    -0.12550000
opls_142-212    C    0.40743992    0.85619003    0.31991999    0.06450000
opls_145-213    C    0.46880002    0.90091994    0.21204998    -0.18340000
opls_145-214    C    0.44556006    0.89507004    0.25400998    0.17710000
opls_145-215    C    0.43605003    0.91562000    0.25914007    -0.18220000
opls_145-216    C    0.44917008    0.94110002    0.22144993    -0.12950000
opls_700-217    C    0.47185987    0.94641992    0.17810018    0.06740000
opls_145-218    C    0.48185007    0.92635010    0.17424993    -0.12740000
opls_700-219    C    0.48514007    0.97317006    0.06928007    0.02400000
opls_700-220    C    0.48570006    0.97340007    0.13837012    0.03130000
opls_700-221    C    0.36459006    0.74903008    0.46535020    0.02790000
opls_145-222    C    0.35464997    0.72268991    0.43095001    -0.17110000
opls_145-223    C    0.46965997    0.94695998    0.03396006    -0.13100000
opls_700-224    C    0.34469007    0.69668011    0.46542005    0.05340000
opls_700-225    C    0.22358000    0.59920994    0.42806989    0.06310000
opls_145-226    C    0.21112001    0.56903995    0.41841007    -0.12620000
opls_145-227    C    0.18504990    0.55354991    0.38341980    -0.13400000
opls_700-228    C    0.17120998    0.56805997    0.35716023    0.06200000
opls_145-229    C    0.18389003    0.59840007    0.36669988    -0.14040000
opls_145-230    C    0.20991011    0.61384004    0.40192024    -0.12550000
opls_142-231    C    0.14380995    0.55124996    0.31991999    0.06450000
opls_145-232    C    0.09907998    0.56788003    0.21204998    -0.18330000
opls_145-233    C    0.10492996    0.55048994    0.25400998    0.17710000
opls_145-234    C    0.08437991    0.52042993    0.25914007    -0.18220000
opls_145-235    C    0.05890009    0.50807004    0.22144993    -0.12950000
opls_700-236    C    0.05358009    0.52544001    0.17810018    0.06740000
opls_145-237    C    0.07364993    0.55550002    0.17424993    -0.12730000
opls_700-238    C    0.02683003    0.51197004    0.06928007    0.02400000
opls_700-239    C    0.02660001    0.51229998    0.13837012    0.03130000
opls_700-240    C    0.25097004    0.61555992    0.46535020    0.02800000
opls_145-241    C    0.27730997    0.63195997    0.43095001    -0.17110000
opls_145-242    C    0.05303998    0.52269992    0.03396006    -0.13100000
opls_700-243    C    0.30331998    0.64800996    0.46542005    0.05340000
opls_750-244    N    0.43565996    0.56714996    0.70850015    -0.36550000
opls_750-245    N    0.43285006    0.86851012    0.70850015    -0.36520000
opls_750-246    N    0.13148999    0.56433991    0.70850015    -0.36550000
opls_750-247    N    0.56434004    0.43285004    0.70850015    -0.36550000
opls_750-248    N    0.56715005    0.13149010    0.70850015    -0.36550000
opls_750-249    N    0.86851001    0.43566009    0.70850015    -0.36540000
opls_750-250    N    0.56434004    0.43285004    0.29149985    -0.36540000
opls_750-251    N    0.56715005    0.13149010    0.29149985    -0.36530000
opls_750-252    N    0.86851001    0.43566009    0.29149985    -0.36550000
opls_750-253    N    0.43565996    0.56714996    0.29149985    -0.36550000
opls_750-254    N    0.43285006    0.86851012    0.29149985    -0.36540000
opls_750-255    N    0.13148999    0.56433991    0.29149985    -0.36540000
opls_146-256    H    0.44247002    0.66408007    0.56209004    0.10670000
opls_146-257    H    0.46977996    0.64552001    0.62339996    0.10390000
opls_146-258    H    0.38981010    0.56353005    0.65292017    0.10830000
opls_146-259    H    0.36283009    0.58220009    0.59098010    0.10400000
opls_144-260    H    0.47211000    0.60684990    0.68493020    0.11180000
opls_146-261    H    0.40889989    0.52333990    0.79170013    0.10800000
opls_146-262    H    0.49354997    0.58110007    0.70736979    0.11110000
opls_146-263    H    0.51507998    0.55843995    0.77418008    0.10810000
opls_146-264    H    0.43067996    0.50028993    0.85808005    0.10850000
opls_146-265    H    0.36775997    0.64530005    0.62191008    0.11060000
opls_146-266    H    0.46903991    0.54287994    0.94155993    0.11150000
opls_146-267    H    0.50000000    0.50000000    0.22278007    0.22620000
opls_702-268    H    0.33333005    0.66666995    0.62032983    0.07010000
opls_146-269    H    0.33591993    0.77838999    0.56209004    0.10660000
opls_146-270    H    0.35447988    0.82425992    0.62339996    0.10380000
opls_146-271    H    0.43647009    0.82628000    0.65292017    0.10830000
opls_146-272    H    0.41780009    0.78063003    0.59098010    0.10400000
opls_144-273    H    0.39314990    0.86525994    0.68493020    0.11180000
opls_146-274    H    0.47665993    0.88555999    0.79170013    0.10810000
opls_146-275    H    0.41889999    0.91245006    0.70736979    0.11100000
opls_146-276    H    0.44155995    0.95663991    0.77418008    0.10800000
opls_146-277    H    0.49971005    0.93039004    0.85808005    0.10850000
opls_146-278    H    0.35470000    0.72246011    0.62191008    0.11060000
opls_146-279    H    0.45712014    0.92616010    0.94155993    0.11100000
opls_146-280    H    0.50000000    0.00000000    0.22278007    0.22620000
opls_146-281    H    0.22161005    0.55752994    0.56209004    0.10660000
opls_146-282    H    0.17573997    0.53022006    0.62339996    0.10380000
opls_146-283    H    0.17372000    0.61018995    0.65292017    0.10830000
opls_146-284    H    0.21937011    0.63717011    0.59098010    0.10630000
opls_144-285    H    0.13473999    0.52788994    0.68493020    0.11180000
opls_146-286    H    0.11443999    0.59110011    0.79170013    0.10800000
opls_146-287    H    0.08754996    0.50645008    0.70736979    0.11100000
opls_146-288    H    0.04335996    0.48491992    0.77418008    0.10800000
opls_146-289    H    0.06960999    0.56932003    0.85808005    0.10850000
opls_146-290    H    0.27753995    0.63224006    0.62191008    0.11060000
opls_146-291    H    0.07383995    0.53095996    0.94155993    0.11150000
opls_146-292    H    1.00000000    0.50000000    0.22278007    0.22610000
opls_146-293    H    0.55752998    0.33591993    0.56209004    0.10660000
opls_146-294    H    0.53022004    0.35447999    0.62339996    0.10380000
opls_146-295    H    0.61018990    0.43646995    0.65292017    0.10830000
opls_146-296    H    0.63716991    0.41779991    0.59098010    0.10400000
opls_144-297    H    0.52789000    0.39315010    0.68493020    0.11180000
opls_146-298    H    0.59110011    0.47666010    0.79170013    0.10800000
opls_146-299    H    0.50645003    0.41889993    0.70736979    0.11100000
opls_146-300    H    0.48492002    0.44156005    0.77418008    0.10800000
opls_146-301    H    0.56932004    0.49971007    0.85808005    0.10850000
opls_146-302    H    0.63224003    0.35469995    0.62191008    0.11060000
opls_146-303    H    0.53096009    0.45712006    0.94155993    0.11150000
opls_702-304    H    0.66666995    0.33333005    0.62032983    0.07020000
opls_146-305    H    0.66408007    0.22161001    0.56209004    0.10660000
opls_146-306    H    0.64552012    0.17574008    0.62339996    0.10390000
opls_146-307    H    0.56352991    0.17372000    0.65292017    0.10840000
opls_146-308    H    0.58219991    0.21936997    0.59098010    0.10400000
opls_144-309    H    0.60685010    0.13474006    0.68493020    0.11180000
opls_146-310    H    0.52334007    0.11444001    0.79170013    0.10800000
opls_146-311    H    0.58110001    0.08754994    0.70736979    0.11100000
opls_146-312    H    0.55844005    0.04336009    0.77418008    0.10810000
opls_146-313    H    0.50028995    0.06960996    0.85808005    0.10850000
opls_146-314    H    0.64530011    0.27754011    0.62191008    0.11060000
opls_146-315    H    0.54287986    0.07383990    0.94155993    0.11110000
opls_146-316    H    0.77838995    0.44247006    0.56209004    0.10660000
opls_146-317    H    0.82426003    0.46977994    0.62339996    0.10380000
opls_146-318    H    0.82628000    0.38981005    0.65292017    0.10830000
opls_146-319    H    0.78063000    0.36283011    0.59098010    0.10400000
opls_144-320    H    0.86526001    0.47211006    0.68493020    0.11180000
opls_146-321    H    0.88556012    0.40890011    0.79170013    0.10800000
opls_146-322    H    0.91245004    0.49354992    0.70736979    0.11100000
opls_146-323    H    0.95664004    0.51508008    0.77418008    0.10800000
opls_146-324    H    0.93039001    0.43067997    0.85808005    0.10850000
opls_146-325    H    0.72246005    0.36775994    0.62191008    0.11060000
opls_146-326    H    0.92616005    0.46904004    0.94155993    0.11150000
opls_146-327    H    0.55752998    0.33591993    0.43790996    0.10660000
opls_146-328    H    0.53022004    0.35447999    0.37660004    0.10380000
opls_146-329    H    0.61018990    0.43646995    0.34707983    0.10840000
opls_146-330    H    0.63716991    0.41779991    0.40901990    0.10400000
opls_144-331    H    0.52789000    0.39315010    0.31506980    0.11180000
opls_146-332    H    0.59110011    0.47666010    0.20829987    0.10800000
opls_146-333    H    0.50645003    0.41889993    0.29263021    0.11100000
opls_146-334    H    0.48492002    0.44156005    0.22581992    0.10800000
opls_146-335    H    0.56932004    0.49971007    0.14191995    0.10850000
opls_146-336    H    0.63224003    0.35469995    0.37808992    0.11060000
opls_146-337    H    0.53096009    0.45712006    0.05844007    0.11150000
opls_146-338    H    0.50000000    0.50000000    0.77721993    0.22610000
opls_702-339    H    0.66666995    0.33333005    0.37967017    0.07010000
opls_146-340    H    0.66408007    0.22161001    0.43790996    0.10660000
opls_146-341    H    0.64552012    0.17574008    0.37660004    0.10380000
opls_146-342    H    0.56352991    0.17372000    0.34707983    0.10830000
opls_146-343    H    0.58219991    0.21936997    0.40901990    0.10400000
opls_144-344    H    0.60685010    0.13474006    0.31506980    0.11190000
opls_146-345    H    0.52334007    0.11444001    0.20829987    0.10800000
opls_146-346    H    0.58110001    0.08754994    0.29263021    0.11100000
opls_146-347    H    0.55844005    0.04336009    0.22581992    0.10800000
opls_146-348    H    0.50028995    0.06960996    0.14191995    0.10850000
opls_146-349    H    0.64530011    0.27754011    0.37808992    0.11060000
opls_146-350    H    0.54287986    0.07383990    0.05844007    0.11100000
opls_146-351    H    0.50000000    0.00000000    0.77721993    0.22610000
opls_146-352    H    0.77838995    0.44247006    0.43790996    0.10670000
opls_146-353    H    0.82426003    0.46977994    0.37660004    0.10380000
opls_146-354    H    0.82628000    0.38981005    0.34707983    0.10830000
opls_146-355    H    0.78063000    0.36283011    0.40901990    0.10400000
opls_144-356    H    0.86526001    0.47211006    0.31506980    0.11180000
opls_146-357    H    0.88556012    0.40890011    0.20829987    0.10800000
opls_146-358    H    0.91245004    0.49354992    0.29263021    0.11100000
opls_146-359    H    0.95664004    0.51508008    0.22581992    0.10800000
opls_146-360    H    0.93039001    0.43067997    0.14191995    0.10850000
opls_146-361    H    0.72246005    0.36775994    0.37808992    0.11060000
opls_146-362    H    0.92616005    0.46904004    0.05844007    0.11150000
opls_146-363    H    0.00000000    0.50000000    0.77721993    0.22610000
opls_146-364    H    0.44247002    0.66408007    0.43790996    0.10660000
opls_146-365    H    0.46977996    0.64552001    0.37660004    0.10380000
opls_146-366    H    0.38981010    0.56353005    0.34707983    0.10840000
opls_146-367    H    0.36283009    0.58220009    0.40901990    0.10400000
opls_144-368    H    0.47211000    0.60684990    0.31506980    0.11180000
opls_146-369    H    0.40889989    0.52333990    0.20829987    0.10800000
opls_146-370    H    0.49354997    0.58110007    0.29263021    0.11100000
opls_146-371    H    0.51507998    0.55843995    0.22581992    0.10800000
opls_146-372    H    0.43067996    0.50028993    0.14191995    0.10850000
opls_146-373    H    0.36775997    0.64530005    0.37808992    0.11070000
opls_146-374    H    0.46903991    0.54287994    0.05844007    0.11160000
opls_702-375    H    0.33333005    0.66666995    0.37967017    0.07010000
opls_146-376    H    0.33591993    0.77838999    0.43790996    0.10660000
opls_146-377    H    0.35447988    0.82425992    0.37660004    0.10380000
opls_146-378    H    0.43647009    0.82628000    0.34707983    0.10830000
opls_146-379    H    0.41780009    0.78063003    0.40901990    0.10400000
opls_144-380    H    0.39314990    0.86525994    0.31506980    0.11180000
opls_146-381    H    0.47665993    0.88555999    0.20829987    0.10800000
opls_146-382    H    0.41889999    0.91245006    0.29263021    0.11110000
opls_146-383    H    0.44155995    0.95663991    0.22581992    0.10800000
opls_146-384    H    0.49971005    0.93039004    0.14191995    0.10850000
opls_146-385    H    0.35470000    0.72246011    0.37808992    0.11060000
opls_146-386    H    0.45712014    0.92616010    0.05844007    0.11100000
opls_146-387    H    0.22161005    0.55752994    0.43790996    0.10660000
opls_146-388    H    0.17573997    0.53022006    0.37660004    0.10380000
opls_146-389    H    0.17372000    0.61018995    0.34707983    0.10840000
opls_146-390    H    0.21937011    0.63717011    0.40901990    0.10630000
opls_144-391    H    0.13473999    0.52788994    0.31506980    0.11180000
opls_146-392    H    0.11443999    0.59110011    0.20829987    0.10800000
opls_146-393    H    0.08754996    0.50645008    0.29263021    0.11110000
opls_146-394    H    0.04335996    0.48491992    0.22581992    0.10800000
opls_146-395    H    0.06960999    0.56932003    0.14191995    0.10850000
opls_146-396    H    0.27753995    0.63224006    0.37808992    0.11060000
opls_146-397    H    0.07383995    0.53095996    0.05844007    0.11150000
