#======================================================================
# Crystal Data Generated By AuToFF
#----------------------------------------------------------------------

data_AuToFF_phase_1

_cell_length_a                         48.0000
_cell_length_b                         51.4000
_cell_length_c                         3.8800
_cell_angle_alpha                      90.00
_cell_angle_beta                       72.00
_cell_angle_gamma                      90.00
_symmetry_space_group_name_H-M_alt     'P 1'
_symmetry_space_group_IT_number        1

loop_
_space_group_symop_operation_xyz
   'x, y, z'

loop_
   _atom_site_label
   _atom_site_type_symbol
   _atom_site_fract_x
   _atom_site_fract_y
   _atom_site_fract_z
   _atom_site_charge
opls_700-0    C    0.96993008    0.47605992    0.50940896    0.02000000
opls_700-1    C    0.46993008    0.97605992    0.50940896    0.02000000
opls_700-2    C    0.03006992    0.47605992    0.49059104    0.02000000
opls_700-3    C    0.53006992    0.97605992    0.49059104    0.02000000
opls_700-4    C    0.03006992    0.52394008    0.49059104    0.02000000
opls_700-5    C    0.53006992    0.02394008    0.49059104    0.02000000
opls_700-6    C    0.96993008    0.52394008    0.50940896    0.02000000
opls_700-7    C    0.46993008    0.02394008    0.50940896    0.02000000
opls_145-8    C    0.01458997    0.45287996    0.49259912    -0.14130000
opls_145-9    C    0.51458997    0.95287996    0.49259912    -0.14130000
opls_145-10    C    0.98541003    0.45287996    0.50740088    -0.14130000
opls_145-11    C    0.48541003    0.95287996    0.50740088    -0.14130000
opls_145-12    C    0.98541003    0.54712004    0.50740088    -0.14130000
opls_145-13    C    0.48541003    0.04712004    0.50740088    -0.14120000
opls_145-14    C    0.01458997    0.54712004    0.49259912    -0.14130000
opls_145-15    C    0.51458997    0.04712004    0.49259912    -0.14130000
opls_700-16    C    0.93985988    0.47609008    0.52392076    0.03840000
opls_700-17    C    0.43985988    0.97609008    0.52392076    0.03840000
opls_700-18    C    0.06013991    0.47609008    0.47607924    0.03840000
opls_700-19    C    0.56013991    0.97609008    0.47607924    0.03840000
opls_700-20    C    0.06013991    0.52390992    0.47607924    0.03840000
opls_700-21    C    0.56013991    0.02390992    0.47607924    0.03840000
opls_700-22    C    0.93985988    0.52390992    0.52392076    0.03840000
opls_700-23    C    0.43985988    0.02390992    0.52392076    0.03840000
opls_700-24    C    0.92154988    0.45197004    0.55302024    0.06530000
opls_700-25    C    0.42154988    0.95197004    0.55302024    0.06530000
opls_700-26    C    0.07844991    0.45197004    0.44697976    0.06530000
opls_700-27    C    0.57844991    0.95197004    0.44697976    0.06530000
opls_700-28    C    0.07844991    0.54802996    0.44697976    0.06530000
opls_700-29    C    0.57844991    0.04802996    0.44697976    0.06530000
opls_700-30    C    0.92154988    0.54802996    0.55302024    0.06530000
opls_700-31    C    0.42154988    0.04802996    0.55302024    0.06530000
opls_145-32    C    0.89321998    0.45074008    0.80572884    -0.13710000
opls_145-33    C    0.39321998    0.95074008    0.80572884    -0.13710000
opls_145-34    C    0.10678002    0.45074008    0.19427116    -0.13710000
opls_145-35    C    0.60678002    0.95074008    0.19427116    -0.13710000
opls_145-36    C    0.10678002    0.54925992    0.19427116    -0.13710000
opls_145-37    C    0.60678002    0.04925992    0.19427116    -0.13710000
opls_145-38    C    0.89321998    0.54925992    0.80572884    -0.13700000
opls_145-39    C    0.39321998    0.04925992    0.80572884    -0.13710000
opls_145-40    C    0.87576991    0.42845992    0.83192867    -0.17810000
opls_145-41    C    0.37576991    0.92845992    0.83192867    -0.17810000
opls_145-42    C    0.12422995    0.42845992    0.16806862    -0.17810000
opls_145-43    C    0.62422995    0.92845992    0.16806862    -0.17800000
opls_145-44    C    0.12422995    0.57154008    0.16806862    -0.17810000
opls_145-45    C    0.62422995    0.07154008    0.16806862    -0.17810000
opls_145-46    C    0.87576991    0.57154008    0.83192867    -0.17810000
opls_145-47    C    0.37576991    0.07154008    0.83192867    -0.17810000
opls_145-48    C    0.88648994    0.40675000    0.61441966    0.18000000
opls_145-49    C    0.38648994    0.90675000    0.61441966    0.18000000
opls_145-50    C    0.11351000    0.40675000    0.38559118    0.18010000
opls_145-51    C    0.61351000    0.90675000    0.38559118    0.18000000
opls_145-52    C    0.11351000    0.59325000    0.38559118    0.18000000
opls_145-53    C    0.61351000    0.09325000    0.38559118    0.18000000
opls_145-54    C    0.88648994    0.59325000    0.61441966    0.18000000
opls_145-55    C    0.38648994    0.09325000    0.61441966    0.18000000
opls_145-56    C    0.08569986    0.40810992    0.64479011    -0.17950000
opls_145-57    C    0.58569986    0.90810992    0.64479011    -0.17960000
opls_145-58    C    0.91429994    0.40810992    0.35520989    -0.17960000
opls_145-59    C    0.41429994    0.90810992    0.35520989    -0.17960000
opls_145-60    C    0.91429994    0.59189008    0.35520989    -0.17960000
opls_145-61    C    0.41429994    0.09189008    0.35520989    -0.17960000
opls_145-62    C    0.08569986    0.59189008    0.64479011    -0.17960000
opls_145-63    C    0.58569986    0.09189008    0.64479011    -0.17960000
opls_145-64    C    0.06874002    0.43062004    0.67897889    -0.12190000
opls_145-65    C    0.56874002    0.93062004    0.67897889    -0.12190000
opls_145-66    C    0.93125998    0.43062004    0.32102111    -0.12190000
opls_145-67    C    0.43125998    0.93062004    0.32102111    -0.12190000
opls_145-68    C    0.93125998    0.56937996    0.32102111    -0.12190000
opls_145-69    C    0.43125998    0.06937996    0.32102111    -0.12190000
opls_145-70    C    0.06874002    0.56937996    0.67897889    -0.12190000
opls_145-71    C    0.56874002    0.06937996    0.67897889    -0.12190000
opls_145-72    C    0.92584997    0.50000000    0.52340858    -0.18320000
opls_145-73    C    0.42584997    0.00000000    0.52340858    -0.18320000
opls_145-74    C    0.07414989    0.50000000    0.47658871    -0.17970000
opls_145-75    C    0.57414989    0.00000000    0.47658871    -0.17970000
opls_700-76    C    0.01504002    0.50000000    0.49685916    0.00160000
opls_700-77    C    0.51504002    0.00000000    0.49685916    0.00160000
opls_700-78    C    0.98495998    0.50000000    0.50314084    0.00160000
opls_700-79    C    0.48495998    0.00000000    0.50314084    0.00160000
opls_142-80    C    0.12102004    0.63960992    0.39639034    0.06170000
opls_142-81    C    0.62102004    0.13960992    0.39639034    0.06170000
opls_142-82    C    0.87897996    0.63960992    0.60360966    0.06170000
opls_142-83    C    0.37897996    0.13960992    0.60360966    0.06170000
opls_142-84    C    0.87897996    0.36039008    0.60360966    0.06170000
opls_142-85    C    0.37897996    0.86039008    0.60360966    0.06170000
opls_142-86    C    0.12102004    0.36039008    0.39639034    0.06170000
opls_142-87    C    0.62102004    0.86039008    0.39639034    0.06170000
opls_567-88    C    0.20387999    0.70880992    0.37806022    -0.00730000
opls_567-89    C    0.70387999    0.20880992    0.37806022    -0.00730000
opls_567-90    C    0.79612001    0.70880992    0.62193978    -0.00730000
opls_567-91    C    0.29612001    0.20880992    0.62193978    -0.00730000
opls_567-92    C    0.79612001    0.29119008    0.62193978    -0.00730000
opls_567-93    C    0.29612001    0.79119008    0.62193978    -0.00730000
opls_567-94    C    0.20387999    0.29119008    0.37806022    -0.00730000
opls_567-95    C    0.70387999    0.79119008    0.37806022    -0.00730000
opls_716-96    C    0.22992999    0.69637004    0.34584971    -0.18890000
opls_716-97    C    0.72992999    0.19637004    0.34584971    -0.18890000
opls_716-98    C    0.77007001    0.69637004    0.65415029    -0.17360000
opls_716-99    C    0.27007001    0.19637004    0.65415029    -0.17360000
opls_716-100    C    0.77007001    0.30362996    0.65415029    -0.17360000
opls_716-101    C    0.27007001    0.80362996    0.65415029    -0.17360000
opls_716-102    C    0.22992999    0.30362996    0.34584971    -0.18890000
opls_716-103    C    0.72992999    0.80362996    0.34584971    -0.18890000
opls_716-104    C    0.25154999    0.71270000    0.38901114    -0.15640000
opls_716-105    C    0.75154999    0.21270000    0.38901114    -0.15640000
opls_700-106    C    0.74845001    0.71270000    0.61098886    0.07410000
opls_700-107    C    0.24845001    0.21270000    0.61098886    0.07410000
opls_700-108    C    0.74845001    0.28730000    0.61098886    0.07410000
opls_700-109    C    0.24845001    0.78730000    0.61098886    0.07410000
opls_716-110    C    0.25154999    0.28730000    0.38901114    -0.15640000
opls_716-111    C    0.75154999    0.78730000    0.38901114    -0.15640000
opls_567-112    C    0.24141999    0.73849008    0.46203084    -0.00170000
opls_567-113    C    0.74141999    0.23849008    0.46203084    -0.00170000
opls_567-114    C    0.75858001    0.73849008    0.53796916    -0.06260000
opls_567-115    C    0.25858001    0.23849008    0.53796916    -0.06260000
opls_567-116    C    0.75858001    0.26150992    0.53796916    -0.06260000
opls_567-117    C    0.25858001    0.76150992    0.53796916    -0.06260000
opls_567-118    C    0.24141999    0.26150992    0.46203084    -0.00170000
opls_567-119    C    0.74141999    0.76150992    0.46203084    -0.00170000
opls_701-120    C    0.71781994    0.70320000    0.64180917    -0.18990000
opls_701-121    C    0.21781994    0.20320000    0.64180917    -0.18990000
opls_701-122    C    0.71781994    0.29680000    0.64180917    -0.18990000
opls_701-123    C    0.21781994    0.79680000    0.64180917    -0.18980000
opls_567-124    C    0.86000989    0.66252996    0.62659007    -0.02650000
opls_567-125    C    0.36000989    0.16252996    0.62659007    -0.02650000
opls_567-126    C    0.13998990    0.66252996    0.37340993    -0.02650000
opls_567-127    C    0.63998990    0.16252996    0.37340993    -0.02650000
opls_567-128    C    0.13998990    0.33747004    0.37340993    -0.02650000
opls_567-129    C    0.63998990    0.83747004    0.37340993    -0.02650000
opls_567-130    C    0.86000989    0.33747004    0.62659007    -0.02650000
opls_567-131    C    0.36000989    0.83747004    0.62659007    -0.02650000
opls_567-132    C    0.82311988    0.69472004    0.63473077    -0.00230000
opls_567-133    C    0.32311988    0.19472004    0.63473077    -0.00230000
opls_567-134    C    0.17687991    0.69472004    0.36526923    -0.06230000
opls_567-135    C    0.67687991    0.19472004    0.36526923    -0.06230000
opls_567-136    C    0.17687991    0.30527996    0.36526923    -0.06230000
opls_567-137    C    0.67687991    0.80527996    0.36526923    -0.06230000
opls_567-138    C    0.82311988    0.30527996    0.63473077    -0.00230000
opls_567-139    C    0.32311988    0.80527996    0.63473077    -0.00230000
opls_716-140    C    0.84980992    0.70614008    0.62974987    -0.15610000
opls_716-141    C    0.34980992    0.20614008    0.62974987    -0.15610000
opls_700-142    C    0.15018987    0.70614008    0.37025013    0.07190000
opls_700-143    C    0.65018987    0.20614008    0.37025013    0.07190000
opls_700-144    C    0.15018987    0.29385992    0.37025013    0.07190000
opls_700-145    C    0.65018987    0.79385992    0.37025013    0.07190000
opls_716-146    C    0.84980992    0.29385992    0.62974987    -0.15610000
opls_716-147    C    0.34980992    0.79385992    0.62974987    -0.15610000
opls_716-148    C    0.87059002    0.68740992    0.62153058    -0.18930000
opls_716-149    C    0.37059002    0.18740992    0.62153058    -0.18930000
opls_716-150    C    0.12940998    0.68740992    0.37846942    -0.17370000
opls_716-151    C    0.62940998    0.18740992    0.37846942    -0.17370000
opls_716-152    C    0.12940998    0.31259008    0.37846942    -0.17370000
opls_716-153    C    0.62940998    0.81259008    0.37846942    -0.17370000
opls_716-154    C    0.87059002    0.31259008    0.62153058    -0.18930000
opls_716-155    C    0.37059002    0.81259008    0.62153058    -0.18930000
opls_701-156    C    0.14454988    0.73512996    0.35974093    -0.19580000
opls_701-157    C    0.64454988    0.23512996    0.35974093    -0.19580000
opls_701-158    C    0.14454988    0.26487004    0.35974093    -0.19580000
opls_701-159    C    0.64454988    0.76487004    0.35974093    -0.19570000
opls_136-160    C    0.21193997    0.82584008    0.73054118    -0.14920000
opls_136-161    C    0.71193997    0.32584008    0.73054118    -0.14920000
opls_136-162    C    0.21193997    0.17415992    0.73054118    -0.14920000
opls_136-163    C    0.71193997    0.67415992    0.73054118    -0.14920000
opls_136-164    C    0.18003992    0.83234008    0.76739926    -0.12550000
opls_136-165    C    0.68003992    0.33234008    0.76739926    -0.12550000
opls_136-166    C    0.18003992    0.16765992    0.76739926    -0.12550000
opls_136-167    C    0.68003992    0.66765992    0.76739926    -0.12550000
opls_135-168    C    0.17420987    0.86122004    0.85258936    -0.41520000
opls_135-169    C    0.67420987    0.36122004    0.85258936    -0.41510000
opls_135-170    C    0.17420987    0.13877996    0.85258936    -0.41510000
opls_135-171    C    0.67420987    0.63877996    0.85258936    -0.41520000
opls_136-172    C    0.11394994    0.74272996    0.34395003    -0.14920000
opls_136-173    C    0.61394994    0.24272996    0.34395003    -0.14920000
opls_136-174    C    0.11394994    0.25727004    0.34395003    -0.14910000
opls_136-175    C    0.61394994    0.75727004    0.34395003    -0.14920000
opls_136-176    C    0.11215991    0.77220000    0.29847972    -0.12600000
opls_136-177    C    0.61215991    0.27220000    0.29847972    -0.12600000
opls_136-178    C    0.11215991    0.22780000    0.29847972    -0.12600000
opls_136-179    C    0.61215991    0.72780000    0.29847972    -0.12600000
opls_135-180    C    0.08174993    0.77979008    0.28465895    -0.41520000
opls_135-181    C    0.58174993    0.27979008    0.28465895    -0.41520000
opls_135-182    C    0.08174993    0.22020992    0.28465895    -0.41520000
opls_135-183    C    0.58174993    0.72020992    0.28465895    -0.41520000
opls_146-184    H    0.02458993    0.43405000    0.47953985    0.09020000
opls_146-185    H    0.52458993    0.93405000    0.47953985    0.09020000
opls_146-186    H    0.97540986    0.43405000    0.52046015    0.09020000
opls_146-187    H    0.47540986    0.93405000    0.52046015    0.09030000
opls_146-188    H    0.97540986    0.56595000    0.52046015    0.09020000
opls_146-189    H    0.47540986    0.06595000    0.52046015    0.09020000
opls_146-190    H    0.02458993    0.56595000    0.47953985    0.09030000
opls_146-191    H    0.52458993    0.06595000    0.47953985    0.09020000
opls_146-192    H    0.88484991    0.46682004    0.98891087    0.10660000
opls_146-193    H    0.38484991    0.96682004    0.98891087    0.10660000
opls_146-194    H    0.11515009    0.46682004    0.01108913    0.10660000
opls_146-195    H    0.61515009    0.96682004    0.01108913    0.10660000
opls_146-196    H    0.11515009    0.53317996    0.01108913    0.10660000
opls_146-197    H    0.61515009    0.03317996    0.01108913    0.10670000
opls_146-198    H    0.88484991    0.53317996    0.98891087    0.10670000
opls_146-199    H    0.38484991    0.03317996    0.98891087    0.10660000
opls_146-200    H    0.85423986    0.42757004    0.03048969    0.11090000
opls_146-201    H    0.35423986    0.92757004    0.03048969    0.11090000
opls_146-202    H    0.14575993    0.42757004    0.96951031    0.11090000
opls_146-203    H    0.64575993    0.92757004    0.96951031    0.11090000
opls_146-204    H    0.14575993    0.57242996    0.96951031    0.11090000
opls_146-205    H    0.64575993    0.07242996    0.96951031    0.11090000
opls_146-206    H    0.85423986    0.57242996    0.03048969    0.11100000
opls_146-207    H    0.35423986    0.07242996    0.03048969    0.11090000
opls_146-208    H    0.07760990    0.39212996    0.82996938    0.11320000
opls_146-209    H    0.57760990    0.89212996    0.82996938    0.11320000
opls_146-210    H    0.92238990    0.39212996    0.17003062    0.11320000
opls_146-211    H    0.42238990    0.89212996    0.17003062    0.11320000
opls_146-212    H    0.92238990    0.60787004    0.17003062    0.11320000
opls_146-213    H    0.42238990    0.10787004    0.17003062    0.11320000
opls_146-214    H    0.07760990    0.60787004    0.82996938    0.11320000
opls_146-215    H    0.57760990    0.10787004    0.82996938    0.11320000
opls_146-216    H    0.04798987    0.43132996    0.88811956    0.09130000
opls_146-217    H    0.54798987    0.93134008    0.88811956    0.09130000
opls_146-218    H    0.95200993    0.43132996    0.11188044    0.09130000
opls_146-219    H    0.45200993    0.93134008    0.11188044    0.09130000
opls_146-220    H    0.95200993    0.56867004    0.11188044    0.09140000
opls_146-221    H    0.45200993    0.06867004    0.11188044    0.09130000
opls_146-222    H    0.04798987    0.56867004    0.88811956    0.09130000
opls_146-223    H    0.54798987    0.06867004    0.88811956    0.09130000
opls_146-224    H    0.90332004    0.50000000    0.52137069    0.10870000
opls_146-225    H    0.40332004    0.00000000    0.52137069    0.10870000
opls_146-226    H    0.09667996    0.50000000    0.47862931    0.10870000
opls_146-227    H    0.59667996    0.00000000    0.47862931    0.10870000
opls_144-228    H    0.09779996    0.64292996    0.44887943    0.09000000
opls_144-229    H    0.59779996    0.14292996    0.44887943    0.09000000
opls_144-230    H    0.90220004    0.64292996    0.55112057    0.09000000
opls_144-231    H    0.40220004    0.14292996    0.55112057    0.09000000
opls_144-232    H    0.90220004    0.35707004    0.55112057    0.09000000
opls_144-233    H    0.40220004    0.85707004    0.55112057    0.09000000
opls_144-234    H    0.09779996    0.35707004    0.44887943    0.09000000
opls_144-235    H    0.59779996    0.85707004    0.44887943    0.09000000
opls_570-236    H    0.23328995    0.67572004    0.29660985    0.11370000
opls_570-237    H    0.73328995    0.17572004    0.29660985    0.11380000
opls_570-238    H    0.76724991    0.67575000    0.70533048    0.11330000
opls_570-239    H    0.26724991    0.17575000    0.70533048    0.11340000
opls_570-240    H    0.76724991    0.32425000    0.70533048    0.11330000
opls_570-241    H    0.26724991    0.82425000    0.70533048    0.11330000
opls_570-242    H    0.23328995    0.32427996    0.29660985    0.11370000
opls_570-243    H    0.73328995    0.82427996    0.29660985    0.11370000
opls_702-244    H    0.71382992    0.70715992    0.38084876    0.09540000
opls_702-245    H    0.21382992    0.20715992    0.38084876    0.09540000
opls_702-246    H    0.71382992    0.29284008    0.38084876    0.09540000
opls_702-247    H    0.21382992    0.79284008    0.38084876    0.09540000
opls_702-248    H    0.70188999    0.71487004    0.85491992    0.10320000
opls_702-249    H    0.20188999    0.21487004    0.85491992    0.10320000
opls_702-250    H    0.70188999    0.28512996    0.85491992    0.10320000
opls_702-251    H    0.20188999    0.78514008    0.85491992    0.10350000
opls_570-252    H    0.89281987    0.69197004    0.61227067    0.11340000
opls_570-253    H    0.39281987    0.19197004    0.61227067    0.11340000
opls_570-254    H    0.10709992    0.69142996    0.38782960    0.11380000
opls_570-255    H    0.60709992    0.19142996    0.38782960    0.11380000
opls_570-256    H    0.10709992    0.30857996    0.38782960    0.11280000
opls_570-257    H    0.60709992    0.80857996    0.38782960    0.11280000
opls_570-258    H    0.89281987    0.30802996    0.61227067    0.11340000
opls_570-259    H    0.39281987    0.80802996    0.61227067    0.11340000
opls_702-260    H    0.16158010    0.74337996    0.12234899    0.11870000
opls_702-261    H    0.66158010    0.24337996    0.12234899    0.11870000
opls_702-262    H    0.16158010    0.25662004    0.12234899    0.11870000
opls_702-263    H    0.66158010    0.75662004    0.12234899    0.11870000
opls_702-264    H    0.14775993    0.74427004    0.60195117    0.12170000
opls_702-265    H    0.64775993    0.24427004    0.60195117    0.12170000
opls_702-266    H    0.14775993    0.25572996    0.60195117    0.12180000
opls_702-267    H    0.64775993    0.75572996    0.60195117    0.12170000
opls_140-268    H    0.22692992    0.83802996    0.51411073    0.11190000
opls_140-269    H    0.72692992    0.33802996    0.51411073    0.11190000
opls_140-270    H    0.22692992    0.16197004    0.51411073    0.11190000
opls_140-271    H    0.72692992    0.66197004    0.51411073    0.11190000
opls_140-272    H    0.21636993    0.83070000    0.98690008    0.12060000
opls_140-273    H    0.71636993    0.33070000    0.98690008    0.12060000
opls_140-274    H    0.21636993    0.16930000    0.98690008    0.12060000
opls_140-275    H    0.71636993    0.66930000    0.98690008    0.12060000
opls_140-276    H    0.16482001    0.82032996    0.98401940    0.11240000
opls_140-277    H    0.66482001    0.32032996    0.98401940    0.11240000
opls_140-278    H    0.16482001    0.17967004    0.98401940    0.11240000
opls_140-279    H    0.66482001    0.67967004    0.98401940    0.11240000
opls_140-280    H    0.17523000    0.82744008    0.51304030    0.10420000
opls_140-281    H    0.67523000    0.32745000    0.51304030    0.10510000
opls_140-282    H    0.17523000    0.17255992    0.51304030    0.10420000
opls_140-283    H    0.67523000    0.67255992    0.51304030    0.10420000
opls_140-284    H    0.18998994    0.87355000    0.64748923    0.15850000
opls_140-285    H    0.68998994    0.37355000    0.64748923    0.15850000
opls_140-286    H    0.18998994    0.12645000    0.64748923    0.15850000
opls_140-287    H    0.68998994    0.62645000    0.64748923    0.15850000
opls_140-288    H    0.17633983    0.86597996    0.12170944    0.16190000
opls_140-289    H    0.67633983    0.36597996    0.12170944    0.16190000
opls_140-290    H    0.17633983    0.13402004    0.12170944    0.16180000
opls_140-291    H    0.67633983    0.63402004    0.12170944    0.16180000
opls_140-292    H    0.15161984    0.86630992    0.85576001    0.15860000
opls_140-293    H    0.65161984    0.36630992    0.85576001    0.15850000
opls_140-294    H    0.15161984    0.13369008    0.85576001    0.15860000
opls_140-295    H    0.65161984    0.63369008    0.85576001    0.15850000
opls_140-296    H    0.09679003    0.73640992    0.59469933    0.07970000
opls_140-297    H    0.59679003    0.23640992    0.59469933    0.07970000
opls_140-298    H    0.09679003    0.26359008    0.59469933    0.07970000
opls_140-299    H    0.59679003    0.76359008    0.59469933    0.07970000
opls_140-300    H    0.10945006    0.73264008    0.11391019    0.10510000
opls_140-301    H    0.60945006    0.23264008    0.11391019    0.10510000
opls_140-302    H    0.10945006    0.26735992    0.11391019    0.10510000
opls_140-303    H    0.60945006    0.76735992    0.11391019    0.10510000
opls_140-304    H    0.12920997    0.77860992    0.04654887    0.11450000
opls_140-305    H    0.62920997    0.27860992    0.04654887    0.11450000
opls_140-306    H    0.12920997    0.22139008    0.04654887    0.11450000
opls_140-307    H    0.62920997    0.72139008    0.04654887    0.11450000
opls_140-308    H    0.11681002    0.78262996    0.52574998    0.10360000
opls_140-309    H    0.61681002    0.28262996    0.52574998    0.10350000
opls_140-310    H    0.11681002    0.21737004    0.52574998    0.10350000
opls_140-311    H    0.61681002    0.71737004    0.52574998    0.10350000
opls_140-312    H    0.06478998    0.77627004    0.54887943    0.16140000
opls_140-313    H    0.56478998    0.27627004    0.54887943    0.16140000
opls_140-314    H    0.06478998    0.22372996    0.54887943    0.16140000
opls_140-315    H    0.56478998    0.72372996    0.54887943    0.16140000
opls_140-316    H    0.07578000    0.76830992    0.07623913    0.16180000
opls_140-317    H    0.57578000    0.26830992    0.07623913    0.16180000
opls_140-318    H    0.07578000    0.23169008    0.07623913    0.16180000
opls_140-319    H    0.57578000    0.73169008    0.07623913    0.16190000
opls_140-320    H    0.08130992    0.80077004    0.21721092    0.15840000
opls_140-321    H    0.58130992    0.30077004    0.21721092    0.15840000
opls_140-322    H    0.08130992    0.19922996    0.21721092    0.15840000
opls_140-323    H    0.58130992    0.69922996    0.21721092    0.15840000
opls_570-324    H    0.27334989    0.29354008    0.37662123    0.11430000
opls_570-325    H    0.35353998    0.22692004    0.62651961    0.11090000
opls_570-326    H    0.35353998    0.77307996    0.62651961    0.11100000
opls_570-327    H    0.27334989    0.70645992    0.37662123    0.11430000
opls_570-328    H    0.85353998    0.72692004    0.62651961    0.11090000
opls_570-329    H    0.77334989    0.79354008    0.37662123    0.11430000
opls_570-330    H    0.77334989    0.20645992    0.37662123    0.11430000
opls_570-331    H    0.85353998    0.27307996    0.62651961    0.11090000
opls_750-332    N    0.63147992    0.11607996    0.34832118    -0.35820000
opls_750-333    N    0.13147992    0.61607996    0.34832118    -0.35820000
opls_750-334    N    0.36852008    0.11607996    0.65167882    -0.35810000
opls_750-335    N    0.86852008    0.61607996    0.65167882    -0.35820000
opls_750-336    N    0.36852008    0.88392004    0.65167882    -0.35810000
opls_750-337    N    0.86852008    0.38392004    0.65167882    -0.35820000
opls_750-338    N    0.63147992    0.88392004    0.34832118    -0.35810000
opls_750-339    N    0.13147992    0.38392004    0.34832118    -0.35820000
opls_633-340    S    0.20575003    0.74130992    0.45865966    0.07290000
opls_633-341    S    0.70575003    0.24130992    0.45865966    0.07290000
opls_633-342    S    0.79424997    0.74130992    0.54134034    0.07290000
opls_633-343    S    0.29424997    0.24130992    0.54134034    0.07300000
opls_633-344    S    0.79424997    0.25869008    0.54134034    0.07290000
opls_633-345    S    0.29424997    0.75869008    0.54134034    0.07290000
opls_633-346    S    0.20575003    0.25869008    0.45865966    0.07290000
opls_633-347    S    0.70575003    0.75869008    0.45865966    0.07290000
opls_633-348    S    0.82414004    0.66115992    0.63992033    0.07290000
opls_633-349    S    0.32414004    0.16115992    0.63992033    0.07290000
opls_633-350    S    0.17585996    0.66115992    0.36007967    0.07290000
opls_633-351    S    0.67585996    0.16115992    0.36007967    0.07290000
opls_633-352    S    0.17585996    0.33884008    0.36007967    0.07290000
opls_633-353    S    0.67585996    0.83884008    0.36007967    0.07290000
opls_633-354    S    0.82414004    0.33884008    0.63992033    0.07290000
opls_633-355    S    0.32414004    0.83884008    0.63992033    0.07290000
