#======================================================================
# Crystal Data Generated By AuToFF
#----------------------------------------------------------------------

data_AuToFF_phase_1

_cell_length_a                         37.0496
_cell_length_b                         37.0496
_cell_length_c                         3.8675
_cell_angle_alpha                      90.00
_cell_angle_beta                       90.00
_cell_angle_gamma                      120.00
_symmetry_space_group_name_H-M_alt     'P 1'
_symmetry_space_group_IT_number        1

loop_
_space_group_symop_operation_xyz
   'x, y, z'

loop_
   _atom_site_label
   _atom_site_type_symbol
   _atom_site_fract_x
   _atom_site_fract_y
   _atom_site_fract_z
   _atom_site_charge
opls_179-0    O    0.05515021    0.58569016    0.42302004    -0.17690000
opls_179-1    O    0.41431005    0.46945994    0.42302004    -0.18080000
opls_179-2    O    0.53054017    0.94485021    0.42302004    -0.18070000
opls_179-3    O    0.94484995    0.41431015    0.42302004    -0.18080000
opls_179-4    O    0.58568995    0.53054006    0.42302004    -0.18080000
opls_179-5    O    0.46945998    0.05515010    0.42302004    -0.17690000
opls_181-6    C    0.04162023    0.61105022    0.26016031    -0.19900000
opls_145-7    C    0.54231991    0.01538994    0.44874984    -0.23290000
opls_700-8    C    0.52716003    0.04277986    0.45557078    0.00720000
opls_166-9    C    0.48436993    0.02740987    0.44177893    0.17980000
opls_142-10    C    0.55723992    0.08730006    0.46684939    0.11160000
opls_145-11    C    0.68940999    0.37617002    0.63488041    -0.13590000
opls_700-12    C    0.64629991    0.35638999    0.63377117    0.08880000
opls_700-13    C    0.75591000    0.37517021    0.62243051    0.07950000
opls_145-14    C    0.64229998    0.41983002    0.77847964    -0.18220000
opls_145-15    C    0.62270998    0.44303992    0.75678087    -0.21270000
opls_145-16    C    0.58501010    0.42764997    0.58690886    0.20470000
opls_145-17    C    0.56710991    0.38852000    0.43285068    -0.21240000
opls_145-18    C    0.58691991    0.36548994    0.44915061    -0.18220000
opls_181-19    C    0.38895001    0.43056995    0.26016031    -0.19890000
opls_145-20    C    0.98460993    0.52693006    0.44874984    -0.23290000
opls_700-21    C    0.95722022    0.48438021    0.45557078    0.00720000
opls_166-22    C    0.97259008    0.45696005    0.44177893    0.17970000
opls_142-23    C    0.91270023    0.46994021    0.46684939    0.11160000
opls_145-24    C    0.62382999    0.31324018    0.63488041    -0.13600000
opls_700-25    C    0.64361004    0.28990999    0.63377117    0.08880000
opls_700-26    C    0.62482999    0.38073995    0.62243051    0.07950000
opls_145-27    C    0.58016992    0.22247006    0.77847964    -0.18220000
opls_145-28    C    0.55695985    0.17966994    0.75678087    -0.21270000
opls_145-29    C    0.57235017    0.15736014    0.58690886    0.20460000
opls_145-30    C    0.61148014    0.17859003    0.43285068    -0.21240000
opls_145-31    C    0.63451015    0.22143004    0.44915061    -0.18220000
opls_181-32    C    0.56943018    0.95838015    0.26016031    -0.19900000
opls_145-33    C    0.47306990    0.45768000    0.44874984    -0.23290000
opls_700-34    C    0.51562001    0.47283993    0.45557078    0.00720000
opls_166-35    C    0.54303998    0.51563008    0.44177893    0.17970000
opls_142-36    C    0.53006001    0.44276004    0.46684939    0.11160000
opls_145-37    C    0.68676017    0.31059011    0.63488041    -0.13600000
opls_700-38    C    0.71009005    0.35370002    0.63377117    0.08880000
opls_700-39    C    0.61926016    0.24409016    0.62243051    0.07950000
opls_145-40    C    0.77752983    0.35769991    0.77847964    -0.18220000
opls_145-41    C    0.82033016    0.37729014    0.75678087    -0.21270000
opls_145-42    C    0.84264015    0.41499020    0.58690886    0.20460000
opls_145-43    C    0.82140995    0.43288997    0.43285068    -0.21240000
opls_145-44    C    0.77856994    0.41308002    0.44915061    -0.18220000
opls_181-45    C    0.95837992    0.38895010    0.26016031    -0.19900000
opls_145-46    C    0.45768009    0.98461006    0.44874984    -0.23290000
opls_700-47    C    0.47283997    0.95722014    0.45557078    0.00720000
opls_166-48    C    0.51563007    0.97259013    0.44177893    0.17970000
opls_142-49    C    0.44276024    0.91270026    0.46684939    0.11160000
opls_145-50    C    0.31059001    0.62382998    0.63488041    -0.13600000
opls_700-51    C    0.35370009    0.64361001    0.63377117    0.08880000
opls_700-52    C    0.24409016    0.62483010    0.62243051    0.07950000
opls_145-53    C    0.35770002    0.58016998    0.77847964    -0.18220000
opls_145-54    C    0.37729002    0.55696008    0.75678087    -0.21260000
opls_145-55    C    0.41498990    0.57235003    0.58690886    0.20460000
opls_145-56    C    0.43289009    0.61148000    0.43285068    -0.21240000
opls_145-57    C    0.41308009    0.63451006    0.44915061    -0.18220000
opls_181-58    C    0.61104999    0.56943005    0.26016031    -0.19900000
opls_145-59    C    0.01539007    0.47306994    0.44874984    -0.23280000
opls_700-60    C    0.04277993    0.51562011    0.45557078    0.00720000
opls_166-61    C    0.02740992    0.54303995    0.44177893    0.17980000
opls_142-62    C    0.08729993    0.53006010    0.46684939    0.11160000
opls_145-63    C    0.37617016    0.68676013    0.63488041    -0.13600000
opls_700-64    C    0.35638996    0.71009001    0.63377117    0.08880000
opls_700-65    C    0.37517001    0.61926005    0.62243051    0.07950000
opls_145-66    C    0.41983024    0.77753025    0.77847964    -0.18210000
opls_145-67    C    0.44304015    0.82033006    0.75678087    -0.21270000
opls_145-68    C    0.42764998    0.84264018    0.58690886    0.20460000
opls_145-69    C    0.38851986    0.82140997    0.43285068    -0.21240000
opls_145-70    C    0.36549001    0.77857027    0.44915061    -0.18220000
opls_181-71    C    0.43056982    0.04161985    0.26016031    -0.19900000
opls_145-72    C    0.52693010    0.54232000    0.44874984    -0.23280000
opls_700-73    C    0.48437999    0.52716007    0.45557078    0.00720000
opls_166-74    C    0.45696002    0.48436992    0.44177893    0.17980000
opls_142-75    C    0.46993999    0.55723996    0.46684939    0.11160000
opls_145-76    C    0.31323999    0.68941020    0.63488041    -0.13600000
opls_700-77    C    0.28990995    0.64629998    0.63377117    0.08890000
opls_700-78    C    0.38073999    0.75591015    0.62243051    0.07470000
opls_145-79    C    0.22247017    0.64230009    0.77847964    -0.18220000
opls_145-80    C    0.17966999    0.62271017    0.75678087    -0.21270000
opls_145-81    C    0.15736001    0.58501011    0.58690886    0.20470000
opls_145-82    C    0.17859005    0.56711003    0.43285068    -0.21240000
opls_145-83    C    0.22143006    0.58691998    0.44915061    -0.18220000
opls_750-84    N    0.54649007    0.11362004    0.56492049    -0.31860000
opls_750-85    N    0.88637990    0.43287002    0.56492049    -0.31870000
opls_750-86    N    0.56713003    0.45350994    0.56492049    -0.31870000
opls_750-87    N    0.45351009    0.88638027    0.56492049    -0.31850000
opls_750-88    N    0.11362010    0.56712998    0.56492049    -0.31870000
opls_750-89    N    0.43286997    0.54649006    0.56492049    -0.31870000
opls_185-90    H    0.02035997    0.61541008    0.43166904    0.08530000
opls_185-91    H    0.02665017    0.59780015    0.00689076    0.07730000
opls_185-92    H    0.06873022    0.64168019    0.20864124    0.10940000
opls_146-93    H    0.57513003    0.02770003    0.45378927    0.22830000
opls_144-94    H    0.58896000    0.09716015    0.40809050    0.09720000
opls_146-95    H    0.70701003    0.40929019    0.63302909    0.22840000
opls_146-96    H    0.67065006    0.43227007    0.92433872    0.09940000
opls_146-97    H    0.63648005    0.47305996    0.87759017    0.08860000
opls_146-98    H    0.53885006    0.37618000    0.28693988    0.08320000
opls_146-99    H    0.57318003    0.33643013    0.31273950    0.08860000
opls_185-100    H    0.38459004    0.40494996    0.43166904    0.08530000
opls_185-101    H    0.40220013    0.42885019    0.00689076    0.07730000
opls_185-102    H    0.35832010    0.42705002    0.20864124    0.10940000
opls_146-103    H    0.97229989    0.54743004    0.45378927    0.22830000
opls_144-104    H    0.90283988    0.49179998    0.40809050    0.09720000
opls_146-105    H    0.59071010    0.29771996    0.63302909    0.22830000
opls_146-106    H    0.56773015    0.23838017    0.92433872    0.09940000
opls_146-107    H    0.52693997    0.16342012    0.87759017    0.08870000
opls_146-108    H    0.62381991    0.16266995    0.28693988    0.08330000
opls_146-109    H    0.66357018    0.23675017    0.31273950    0.08860000
opls_185-110    H    0.59505015    0.97964027    0.43166904    0.08530000
opls_185-111    H    0.57115001    0.97335028    0.00689076    0.07740000
opls_185-112    H    0.57295011    0.93127010    0.20864124    0.10950000
opls_146-113    H    0.45257008    0.42486994    0.45378927    0.22830000
opls_144-114    H    0.50820001    0.41104018    0.40809050    0.09720000
opls_146-115    H    0.70228003    0.29299016    0.63302909    0.22830000
opls_146-116    H    0.76161994    0.32935007    0.92433872    0.09940000
opls_146-117    H    0.83657998    0.36351991    0.87759017    0.08870000
opls_146-118    H    0.83733003    0.46115006    0.28693988    0.08320000
opls_146-119    H    0.76324995    0.42682001    0.31273950    0.08860000
opls_185-120    H    0.97964003    0.38458992    0.43166904    0.08530000
opls_185-121    H    0.97334998    0.40220016    0.00689076    0.07730000
opls_185-122    H    0.93126994    0.35832012    0.20864124    0.10940000
opls_146-123    H    0.42487013    0.97230029    0.45378927    0.22830000
opls_144-124    H    0.41104016    0.90284016    0.40809050    0.09720000
opls_146-125    H    0.29299012    0.59071012    0.63302909    0.22840000
opls_146-126    H    0.32935009    0.56773024    0.92433872    0.09940000
opls_146-127    H    0.36351995    0.52694004    0.87759017    0.08860000
opls_146-128    H    0.46114994    0.62382000    0.28693988    0.08320000
opls_146-129    H    0.42682013    0.66357019    0.31273950    0.08870000
opls_185-130    H    0.61540996    0.59505004    0.43166904    0.08530000
opls_185-131    H    0.59780002    0.57115012    0.00689076    0.07730000
opls_185-132    H    0.64167990    0.57294998    0.20864124    0.10940000
opls_146-133    H    0.02770011    0.45256996    0.45378927    0.22830000
opls_144-134    H    0.09716012    0.50820002    0.40809050    0.09720000
opls_146-135    H    0.40928990    0.70228004    0.63302909    0.22200000
opls_146-136    H    0.43227000    0.76162014    0.92433872    0.09940000
opls_146-137    H    0.47306019    0.83658019    0.87759017    0.08860000
opls_146-138    H    0.37618009    0.83733005    0.28693988    0.08320000
opls_146-139    H    0.33642998    0.76325014    0.31273950    0.08870000
opls_185-140    H    0.40495000    0.02036004    0.43166904    0.08530000
opls_185-141    H    0.42885015    0.02665003    0.00689076    0.07730000
opls_185-142    H    0.42704989    0.06872990    0.20864124    0.10940000
opls_146-143    H    0.54742992    0.57513006    0.45378927    0.22840000
opls_144-144    H    0.49180014    0.58896013    0.40809050    0.09720000
opls_146-145    H    0.29772013    0.70701015    0.63302909    0.22840000
opls_146-146    H    0.23838022    0.67065025    0.92433872    0.09940000
opls_146-147    H    0.16342002    0.63648009    0.87759017    0.08860000
opls_146-148    H    0.16266997    0.53884994    0.28693988    0.08320000
opls_146-149    H    0.23675005    0.57317999    0.31273950    0.08860000
