#======================================================================
# Crystal Data Generated By AuToFF
#----------------------------------------------------------------------

data_AuToFF_phase_1

_cell_length_a                         23.0000
_cell_length_b                         23.0000
_cell_length_c                         7.0000
_cell_angle_alpha                      90.00
_cell_angle_beta                       90.00
_cell_angle_gamma                      90.00
_symmetry_space_group_name_H-M_alt     'P 1'
_symmetry_space_group_IT_number        1

loop_
_space_group_symop_operation_xyz
   'x, y, z'

loop_
   _atom_site_label
   _atom_site_type_symbol
   _atom_site_fract_x
   _atom_site_fract_y
   _atom_site_fract_z
   _atom_site_charge
opls_145-0    C    0.45420000    0.61693000    0.07158000    -0.10060000
opls_145-1    C    0.39201000    0.61878000    0.04823000    0.23270000
opls_145-2    C    0.36502000    0.58071000    0.18657000    -0.09960000
opls_145-3    C    0.39745000    0.54513000    0.32849000    -0.07810000
opls_700-4    C    0.46032000    0.54347000    0.35099000    0.09510000
opls_142-5    C    0.30744000    0.66942000    0.82694000    0.05680000
opls_145-6    C    0.21880000    0.71609000    0.62186000    -0.07950000
opls_166-7    C    0.31184000    0.74870000    0.52520000    0.24770000
opls_700-8    C    0.28061000    0.71180000    0.65616000    -0.02880000
opls_145-9    C    0.48606000    0.58175000    0.21196000    -0.07950000
opls_145-10    C    0.88319000    0.95474000    0.07064000    -0.10060000
opls_145-11    C    0.88085000    0.89254000    0.04802000    0.23280000
opls_145-12    C    0.91855000    0.86540000    0.18708000    -0.09970000
opls_145-13    C    0.95422000    0.89766000    0.32912000    -0.07810000
opls_700-14    C    0.95636000    0.96053000    0.35097000    0.09480000
opls_142-15    C    0.82996000    0.80789000    0.82900000    0.05670000
opls_166-16    C    0.78554000    0.71715000    0.62465000    0.24910000
opls_145-17    C    0.75182000    0.80978000    0.52476000    -0.07950000
opls_700-18    C    0.78844000    0.77977000    0.65780000    -0.02910000
opls_145-19    C    0.91845000    0.98645000    0.21118000    -0.07950000
opls_182-20    C    0.33768000    0.87197000    0.32272000    -0.00120000
opls_182-21    C    0.28840000    0.91257000    0.38188000    -0.01730000
opls_182-22    C    0.28300000    0.90927000    0.69781000    -0.01800000
opls_182-23    C    0.40004000    0.79983000    0.58805000    -0.00020000
opls_182-24    C    0.37997000    0.82288000    0.78110000    -0.01710000
opls_182-25    C    0.32902000    0.90258000    0.85335000    -0.01790000
opls_145-26    C    0.54580000    0.38307000    0.07158000    -0.10060000
opls_145-27    C    0.60799000    0.38122000    0.04823000    0.23270000
opls_145-28    C    0.63498000    0.41929000    0.18657000    -0.09970000
opls_145-29    C    0.60255000    0.45487000    0.32849000    -0.07810000
opls_700-30    C    0.53968000    0.45653000    0.35099000    0.09510000
opls_142-31    C    0.69256000    0.33058000    0.82694000    0.05680000
opls_145-32    C    0.78120000    0.28391000    0.62186000    -0.07950000
opls_166-33    C    0.68816000    0.25130000    0.52520000    0.24770000
opls_700-34    C    0.71939000    0.28820000    0.65616000    -0.02880000
opls_145-35    C    0.51394000    0.41825000    0.21196000    -0.07950000
opls_145-36    C    0.11681000    0.04526000    0.07064000    -0.10060000
opls_145-37    C    0.11915000    0.10746000    0.04802000    0.23270000
opls_145-38    C    0.08145000    0.13460000    0.18708000    -0.09970000
opls_145-39    C    0.04578000    0.10234000    0.32912000    -0.07810000
opls_700-40    C    0.04364000    0.03947000    0.35097000    0.09470000
opls_142-41    C    0.17004000    0.19211000    0.82900000    0.05670000
opls_166-42    C    0.21446000    0.28285000    0.62465000    0.24910000
opls_145-43    C    0.24818000    0.19022000    0.52476000    -0.07950000
opls_700-44    C    0.21156000    0.22023000    0.65780000    -0.02910000
opls_145-45    C    0.08155000    0.01355000    0.21118000    -0.07950000
opls_182-46    C    0.66232000    0.12803000    0.32272000    -0.00120000
opls_182-47    C    0.71160000    0.08743000    0.38188000    -0.01730000
opls_182-48    C    0.71700000    0.09073000    0.69781000    -0.01800000
opls_182-49    C    0.59996000    0.20017000    0.58805000    -0.00020000
opls_182-50    C    0.62003000    0.17712000    0.78110000    -0.01710000
opls_182-51    C    0.67098000    0.09742000    0.85335000    -0.01790000
opls_145-52    C    0.61693000    0.54580000    0.92842000    -0.10060000
opls_145-53    C    0.61878000    0.60799000    0.95177000    0.23270000
opls_145-54    C    0.58071000    0.63498000    0.81343000    -0.09970000
opls_145-55    C    0.54513000    0.60255000    0.67151000    -0.07810000
opls_700-56    C    0.54347000    0.53968000    0.64901000    0.09510000
opls_142-57    C    0.66942000    0.69256000    0.17306000    0.05680000
opls_145-58    C    0.71609000    0.78120000    0.37814000    -0.07950000
opls_166-59    C    0.74870000    0.68816000    0.47480000    0.24770000
opls_700-60    C    0.71180000    0.71939000    0.34384000    -0.02880000
opls_145-61    C    0.58175000    0.51394000    0.78804000    -0.07950000
opls_145-62    C    0.95474000    0.11681000    0.92936000    -0.10060000
opls_145-63    C    0.89254000    0.11915000    0.95198000    0.23270000
opls_145-64    C    0.86540000    0.08145000    0.81292000    -0.09970000
opls_145-65    C    0.89766000    0.04578000    0.67088000    -0.07810000
opls_700-66    C    0.96053000    0.04364000    0.64903000    0.09470000
opls_142-67    C    0.80789000    0.17004000    0.17100000    0.05670000
opls_166-68    C    0.71715000    0.21446000    0.37535000    0.24910000
opls_145-69    C    0.80978000    0.24818000    0.47524000    -0.07950000
opls_700-70    C    0.77977000    0.21156000    0.34220000    -0.02910000
opls_145-71    C    0.98645000    0.08155000    0.78882000    -0.07950000
opls_182-72    C    0.87197000    0.66232000    0.67728000    -0.00120000
opls_182-73    C    0.91257000    0.71160000    0.61812000    -0.01730000
opls_182-74    C    0.90927000    0.71700000    0.30219000    -0.01800000
opls_182-75    C    0.79983000    0.59996000    0.41195000    -0.00020000
opls_182-76    C    0.82288000    0.62003000    0.21890000    -0.01710000
opls_182-77    C    0.90258000    0.67098000    0.14665000    -0.01790000
opls_145-78    C    0.38307000    0.45420000    0.92842000    -0.10060000
opls_145-79    C    0.38122000    0.39201000    0.95177000    0.23280000
opls_145-80    C    0.41929000    0.36502000    0.81343000    -0.09970000
opls_145-81    C    0.45487000    0.39745000    0.67151000    -0.07810000
opls_700-82    C    0.45653000    0.46032000    0.64901000    0.09510000
opls_142-83    C    0.33058000    0.30744000    0.17306000    0.05680000
opls_145-84    C    0.28391000    0.21880000    0.37814000    -0.07950000
opls_166-85    C    0.25130000    0.31184000    0.47480000    0.24770000
opls_700-86    C    0.28820000    0.28061000    0.34384000    -0.02880000
opls_145-87    C    0.41825000    0.48606000    0.78804000    -0.07940000
opls_145-88    C    0.04526000    0.88319000    0.92936000    -0.10060000
opls_145-89    C    0.10746000    0.88085000    0.95198000    0.23280000
opls_145-90    C    0.13460000    0.91855000    0.81292000    -0.09970000
opls_145-91    C    0.10234000    0.95422000    0.67088000    -0.07810000
opls_700-92    C    0.03947000    0.95636000    0.64903000    0.09470000
opls_142-93    C    0.19211000    0.82996000    0.17100000    0.05670000
opls_166-94    C    0.28285000    0.78554000    0.37535000    0.24910000
opls_145-95    C    0.19022000    0.75182000    0.47524000    -0.07950000
opls_700-96    C    0.22023000    0.78844000    0.34220000    -0.02910000
opls_145-97    C    0.01355000    0.91845000    0.78882000    -0.07950000
opls_182-98    C    0.12803000    0.33768000    0.67728000    -0.00120000
opls_182-99    C    0.08743000    0.28840000    0.61812000    -0.01730000
opls_182-100    C    0.09073000    0.28300000    0.30219000    -0.01800000
opls_182-101    C    0.20017000    0.40004000    0.41195000    -0.00020000
opls_182-102    C    0.17712000    0.37997000    0.21890000    -0.01710000
opls_182-103    C    0.09742000    0.32902000    0.14665000    -0.01790000
opls_701-104    C    0.50000000    0.50000000    0.50000000    0.06050000
opls_701-105    C    0.00000000    0.00000000    0.50000000    0.06050000
opls_750-106    N    0.36271000    0.65738000    0.89144000    -0.20880000
opls_750-107    N    0.84240000    0.86334000    0.89066000    -0.20880000
opls_750-108    N    0.63729000    0.34262000    0.89144000    -0.20880000
opls_750-109    N    0.15760000    0.13666000    0.89066000    -0.20870000
opls_750-110    N    0.65738000    0.63729000    0.10856000    -0.20860000
opls_750-111    N    0.86334000    0.15760000    0.10934000    -0.20880000
opls_750-112    N    0.34262000    0.36271000    0.10856000    -0.20870000
opls_750-113    N    0.13666000    0.84240000    0.10934000    -0.20880000
opls_179-114    O    0.31704000    0.81795000    0.24792000    -0.17740000
opls_179-115    O    0.37262000    0.74620000    0.54062000    -0.17540000
opls_180-116    O    0.30426000    0.94298000    0.54678000    -0.13000000
opls_180-117    O    0.38207000    0.88361000    0.77735000    -0.12740000
opls_179-118    O    0.68296000    0.18205000    0.24792000    -0.17740000
opls_179-119    O    0.62738000    0.25380000    0.54062000    -0.17550000
opls_180-120    O    0.69574000    0.05702000    0.54678000    -0.13000000
opls_180-121    O    0.61793000    0.11639000    0.77735000    -0.12730000
opls_179-122    O    0.81795000    0.68296000    0.75208000    -0.17740000
opls_179-123    O    0.74620000    0.62738000    0.45938000    -0.17550000
opls_180-124    O    0.94298000    0.69574000    0.45322000    -0.13000000
opls_180-125    O    0.88361000    0.61793000    0.22265000    -0.12740000
opls_179-126    O    0.18205000    0.31704000    0.75208000    -0.17740000
opls_179-127    O    0.25380000    0.37262000    0.45938000    -0.17550000
opls_180-128    O    0.05702000    0.30426000    0.45322000    -0.13000000
opls_180-129    O    0.11639000    0.38207000    0.22265000    -0.12730000
opls_146-130    H    0.48331000    0.64450000    0.97582000    0.05060000
opls_146-131    H    0.31566000    0.57651000    0.19168000    0.05060000
opls_146-132    H    0.37280000    0.51585000    0.43198000    0.05060000
opls_144-133    H    0.26830000    0.64768000    0.89681000    0.02990000
opls_146-134    H    0.18710000    0.69011000    0.71344000    0.05060000
opls_146-135    H    0.53557000    0.58342000    0.21688000    0.05060000
opls_146-136    H    0.85599000    0.98397000    0.97412000    0.05060000
opls_146-137    H    0.92237000    0.81601000    0.19275000    0.05060000
opls_146-138    H    0.98317000    0.87287000    0.43324000    0.05060000
opls_144-139    H    0.85070000    0.76888000    0.90283000    0.02990000
opls_146-140    H    0.74902000    0.85925000    0.52829000    0.05060000
opls_146-141    H    0.91716000    0.03598000    0.21560000    0.05060000
opls_185-142    H    0.36629000    0.86292000    0.45234000    -0.14580000
opls_185-143    H    0.36508000    0.89378000    0.20748000    0.04620000
opls_185-144    H    0.24757000    0.88596000    0.41160000    0.04620000
opls_185-145    H    0.27933000    0.94478000    0.26173000    0.04620000
opls_185-146    H    0.27041000    0.86446000    0.64185000    0.04620000
opls_185-147    H    0.24304000    0.93120000    0.76176000    0.04620000
opls_185-148    H    0.44913000    0.79310000    0.59191000    0.04620000
opls_185-149    H    0.38908000    0.83283000    0.47201000    -0.14590000
opls_185-150    H    0.40992000    0.80588000    0.89821000    0.04620000
opls_185-151    H    0.33356000    0.80780000    0.80964000    0.04620000
opls_185-152    H    0.31320000    0.86967000    0.96349000    0.04620000
opls_185-153    H    0.33629000    0.94626000    0.92652000    0.04620000
opls_146-154    H    0.51669000    0.35550000    0.97582000    0.05060000
opls_146-155    H    0.68434000    0.42349000    0.19168000    0.05070000
opls_146-156    H    0.62720000    0.48415000    0.43198000    0.05060000
opls_144-157    H    0.73170000    0.35232000    0.89681000    0.02990000
opls_146-158    H    0.81290000    0.30989000    0.71344000    0.05060000
opls_146-159    H    0.46443000    0.41658000    0.21688000    0.05060000
opls_146-160    H    0.14401000    0.01603000    0.97412000    0.05060000
opls_146-161    H    0.07763000    0.18399000    0.19275000    0.05060000
opls_146-162    H    0.01683000    0.12713000    0.43324000    0.05060000
opls_144-163    H    0.14930000    0.23112000    0.90283000    0.02990000
opls_146-164    H    0.25098000    0.14075000    0.52829000    0.05060000
opls_146-165    H    0.08284000    0.96402000    0.21560000    0.05060000
opls_185-166    H    0.63371000    0.13708000    0.45234000    -0.14580000
opls_185-167    H    0.63492000    0.10622000    0.20748000    0.04620000
opls_185-168    H    0.75243000    0.11404000    0.41160000    0.04620000
opls_185-169    H    0.72067000    0.05522000    0.26173000    0.04630000
opls_185-170    H    0.72959000    0.13554000    0.64185000    0.04620000
opls_185-171    H    0.75696000    0.06880000    0.76176000    0.04620000
opls_185-172    H    0.55087000    0.20690000    0.59191000    0.04620000
opls_185-173    H    0.61092000    0.16717000    0.47201000    -0.14590000
opls_185-174    H    0.59008000    0.19412000    0.89821000    0.04620000
opls_185-175    H    0.66644000    0.19220000    0.80964000    0.04620000
opls_185-176    H    0.68680000    0.13033000    0.96349000    0.04620000
opls_185-177    H    0.66371000    0.05374000    0.92652000    0.04620000
opls_146-178    H    0.64450000    0.51669000    0.02418000    0.05060000
opls_146-179    H    0.57651000    0.68434000    0.80832000    0.05060000
opls_146-180    H    0.51585000    0.62720000    0.56802000    0.05060000
opls_144-181    H    0.64768000    0.73170000    0.10319000    0.02990000
opls_146-182    H    0.69011000    0.81290000    0.28656000    0.05060000
opls_146-183    H    0.58342000    0.46443000    0.78312000    0.05060000
opls_146-184    H    0.98397000    0.14401000    0.02588000    0.05060000
opls_146-185    H    0.81601000    0.07763000    0.80725000    0.05060000
opls_146-186    H    0.87287000    0.01683000    0.56676000    0.05060000
opls_144-187    H    0.76888000    0.14930000    0.09717000    0.02990000
opls_146-188    H    0.85925000    0.25098000    0.47171000    0.05060000
opls_146-189    H    0.03598000    0.08284000    0.78440000    0.05060000
opls_185-190    H    0.86292000    0.63371000    0.54766000    -0.14570000
opls_185-191    H    0.89378000    0.63492000    0.79252000    0.04620000
opls_185-192    H    0.88596000    0.75243000    0.58840000    0.04620000
opls_185-193    H    0.94478000    0.72067000    0.73827000    0.04620000
opls_185-194    H    0.86446000    0.72959000    0.35815000    0.04620000
opls_185-195    H    0.93120000    0.75696000    0.23824000    0.04620000
opls_185-196    H    0.79310000    0.55087000    0.40809000    0.04620000
opls_185-197    H    0.83283000    0.61092000    0.52799000    -0.14590000
opls_185-198    H    0.80588000    0.59008000    0.10179000    0.04620000
opls_185-199    H    0.80780000    0.66644000    0.19036000    0.04620000
opls_185-200    H    0.86967000    0.68680000    0.03651000    0.04630000
opls_185-201    H    0.94626000    0.66371000    0.07348000    0.04620000
opls_146-202    H    0.35550000    0.48331000    0.02418000    0.05060000
opls_146-203    H    0.42349000    0.31566000    0.80832000    0.05060000
opls_146-204    H    0.48415000    0.37280000    0.56802000    0.05060000
opls_144-205    H    0.35232000    0.26830000    0.10319000    0.02990000
opls_146-206    H    0.30989000    0.18710000    0.28656000    0.05060000
opls_146-207    H    0.41658000    0.53557000    0.78312000    0.05060000
opls_146-208    H    0.01603000    0.85599000    0.02588000    0.05060000
opls_146-209    H    0.18399000    0.92237000    0.80725000    0.05060000
opls_146-210    H    0.12713000    0.98317000    0.56676000    0.05060000
opls_144-211    H    0.23112000    0.85070000    0.09717000    0.02990000
opls_146-212    H    0.14075000    0.74902000    0.47171000    0.05060000
opls_146-213    H    0.96402000    0.91716000    0.78440000    0.05060000
opls_185-214    H    0.13708000    0.36629000    0.54766000    -0.14570000
opls_185-215    H    0.10622000    0.36508000    0.79252000    0.04620000
opls_185-216    H    0.11404000    0.24757000    0.58840000    0.04620000
opls_185-217    H    0.05522000    0.27933000    0.73827000    0.04620000
opls_185-218    H    0.13554000    0.27041000    0.35815000    0.04620000
opls_185-219    H    0.06880000    0.24304000    0.23824000    0.04620000
opls_185-220    H    0.20690000    0.44913000    0.40809000    0.04620000
opls_185-221    H    0.16717000    0.38908000    0.52799000    -0.14590000
opls_185-222    H    0.19412000    0.40992000    0.10179000    0.04620000
opls_185-223    H    0.19220000    0.33356000    0.19036000    0.04620000
opls_185-224    H    0.13033000    0.31320000    0.03651000    0.04620000
opls_185-225    H    0.05374000    0.33629000    0.07348000    0.04620000
