#======================================================================
# Crystal Data Generated By AuToFF
#----------------------------------------------------------------------

data_AuToFF_phase_1

_cell_length_a                         22.0311
_cell_length_b                         22.0311
_cell_length_c                         3.7229
_cell_angle_alpha                      90.00
_cell_angle_beta                       90.00
_cell_angle_gamma                      120.00
_symmetry_space_group_name_H-M_alt     'P 1'
_symmetry_space_group_IT_number        1

loop_
_space_group_symop_operation_xyz
   'x, y, z'

loop_
   _atom_site_label
   _atom_site_type_symbol
   _atom_site_fract_x
   _atom_site_fract_y
   _atom_site_fract_z
   _atom_site_charge
opls_521-0    C    0.07168013    0.54156007    0.40777888    0.17560000
opls_522-1    C    0.03019977    0.57266992    0.38674958    -0.19620000
opls_700-2    C    0.04236990    0.46847007    0.42341991    0.00320000
opls_521-3    C    0.18689013    0.56249984    0.52155040    0.18250000
opls_523-4    C    0.28246004    0.68649005    0.56140912    -0.07770000
opls_700-5    C    0.26196983    0.61505994    0.55862903    0.03130000
opls_523-6    C    0.09001975    0.43957988    0.50053990    0.03180000
opls_522-7    C    0.15831981    0.48563982    0.56035886    -0.22300000
opls_145-8    C    0.00356013    0.31646024    0.71293884    -0.12350000
opls_145-9    C    0.98063988    0.24485979    0.72875984    -0.08860000
opls_145-10    C    0.02103003    0.21887011    0.57775927    -0.08620000
opls_145-11    C    0.08420031    0.26451021    0.40845040    -0.08970000
opls_145-12    C    0.10609021    0.33586013    0.38068978    -0.13800000
opls_700-13    C    0.06544000    0.36289020    0.52867120    0.06450000
opls_521-14    C    0.45843983    0.53012004    0.40777888    0.17560000
opls_522-15    C    0.42733023    0.45753005    0.38674958    -0.19630000
opls_700-16    C    0.53153018    0.57390004    0.42341991    0.00320000
opls_521-17    C    0.43750006    0.62438986    0.52155040    0.18250000
opls_523-18    C    0.31351004    0.59597033    0.56140912    -0.07770000
opls_700-19    C    0.38493983    0.64690985    0.55862903    0.03130000
opls_523-20    C    0.56041969    0.65043982    0.50053990    0.03180000
opls_522-21    C    0.51436013    0.67267993    0.56035886    -0.22300000
opls_145-22    C    0.68353990    0.68710013    0.71293884    -0.12350000
opls_145-23    C    0.75513992    0.73578015    0.72875984    -0.08860000
opls_145-24    C    0.78113019    0.80216033    0.57775927    -0.08630000
opls_145-25    C    0.73549019    0.81969015    0.40845040    -0.08970000
opls_145-26    C    0.66414022    0.77023023    0.38068978    -0.13810000
opls_700-27    C    0.63711014    0.70255023    0.52867120    0.06450000
opls_521-28    C    0.46988004    0.92831989    0.40777888    0.17560000
opls_522-29    C    0.54247000    0.96980003    0.38674958    -0.19630000
opls_700-30    C    0.42609992    0.95762989    0.42341991    0.00320000
opls_521-31    C    0.37561026    0.81311031    0.52155040    0.18250000
opls_523-32    C    0.40403018    0.71754014    0.56140912    -0.07770000
opls_700-33    C    0.35308989    0.73803021    0.55862903    0.03130000
opls_523-34    C    0.34956010    0.90998030    0.50053990    0.03170000
opls_522-35    C    0.32732006    0.84168025    0.56035886    -0.22300000
opls_145-36    C    0.31290023    0.99644016    0.71293884    -0.12350000
opls_145-37    C    0.26422020    0.01936006    0.72875984    -0.08860000
opls_145-38    C    0.19784005    0.97897009    0.57775927    -0.08630000
opls_145-39    C    0.18031022    0.91580016    0.40845040    -0.08970000
opls_145-40    C    0.22977028    0.89391016    0.38068978    -0.13810000
opls_700-41    C    0.29745013    0.93456010    0.52867120    0.06450000
opls_521-42    C    0.92831987    0.45843993    0.40777888    0.17560000
opls_522-43    C    0.96980023    0.42733008    0.38674958    -0.19630000
opls_700-44    C    0.95763010    0.53152993    0.42341991    0.00320000
opls_521-45    C    0.81310987    0.43750016    0.52155040    0.18250000
opls_523-46    C    0.71753996    0.31350995    0.56140912    -0.07770000
opls_700-47    C    0.73803017    0.38494006    0.55862903    0.03130000
opls_523-48    C    0.90998025    0.56042012    0.50053990    0.03180000
opls_522-49    C    0.84168019    0.51436018    0.56035886    -0.22300000
opls_145-50    C    0.99644013    0.68354028    0.71293884    -0.12350000
opls_145-51    C    0.01936012    0.75514021    0.72875984    -0.08860000
opls_145-52    C    0.97896997    0.78112989    0.57775927    -0.08630000
opls_145-53    C    0.91579995    0.73549031    0.40845040    -0.08970000
opls_145-54    C    0.89390979    0.66413987    0.38068978    -0.13810000
opls_700-55    C    0.93456026    0.63711032    0.52867120    0.06450000
opls_521-56    C    0.54156017    0.46987996    0.40777888    0.17570000
opls_522-57    C    0.57266977    0.54246995    0.38674958    -0.19630000
opls_700-58    C    0.46846982    0.42609996    0.42341991    0.00320000
opls_521-59    C    0.56249994    0.37561014    0.52155040    0.18250000
opls_523-60    C    0.68649022    0.40403019    0.56140912    -0.07770000
opls_700-61    C    0.61506017    0.35309015    0.55862903    0.03130000
opls_523-62    C    0.43958031    0.34956018    0.50053990    0.03180000
opls_522-63    C    0.48563987    0.32732007    0.56035886    -0.22290000
opls_145-64    C    0.31646010    0.31289987    0.71293884    -0.12340000
opls_145-65    C    0.24486008    0.26421985    0.72875984    -0.08860000
opls_145-66    C    0.21887008    0.19784019    0.57775927    -0.08630000
opls_145-67    C    0.26450981    0.18030985    0.40845040    -0.08970000
opls_145-68    C    0.33585978    0.22976977    0.38068978    -0.13810000
opls_700-69    C    0.36288986    0.29744977    0.52867120    0.06450000
opls_521-70    C    0.53011996    0.07168011    0.40777888    0.17560000
opls_522-71    C    0.45753000    0.03019997    0.38674958    -0.19630000
opls_700-72    C    0.57390008    0.04237011    0.42341991    0.00320000
opls_521-73    C    0.62439000    0.18689022    0.52155040    0.18250000
opls_523-74    C    0.59596982    0.28245986    0.56140912    -0.07770000
opls_700-75    C    0.64691011    0.26196979    0.55862903    0.03130000
opls_523-76    C    0.65044016    0.09002023    0.50053990    0.03180000
opls_522-77    C    0.67268020    0.15832027    0.56035886    -0.22300000
opls_145-78    C    0.68709977    0.00355984    0.71293884    -0.12340000
opls_145-79    C    0.73577980    0.98063994    0.72875984    -0.08860000
opls_145-80    C    0.80215995    0.02102991    0.57775927    -0.08620000
opls_145-81    C    0.81968978    0.08419984    0.40845040    -0.08960000
opls_145-82    C    0.77022972    0.10608984    0.38068978    -0.13810000
opls_700-83    C    0.70254987    0.06543990    0.52867120    0.06450000
opls_520-84    N    0.14479032    0.58567027    0.44635096    -0.31380000
opls_520-85    N    0.41433008    0.55912029    0.44635096    -0.31380000
opls_520-86    N    0.44087985    0.85520997    0.44635096    -0.31390000
opls_520-87    N    0.85520994    0.41433026    0.44635096    -0.31390000
opls_520-88    N    0.58567018    0.44088023    0.44635096    -0.31380000
opls_520-89    N    0.55912015    0.14479003    0.44635096    -0.31390000
opls_525-90    H    0.05630990    0.62888998    0.36689946    0.10490000
opls_526-91    H    0.24283035    0.70141026    0.54895109    0.08280000
opls_146-92    H    0.97338022    0.33533024    0.85220124    0.09150000
opls_146-93    H    0.93233986    0.20984995    0.86627092    0.11490000
opls_146-94    H    0.00369994    0.16352009    0.59484004    0.11400000
opls_146-95    H    0.11547993    0.24428011    0.29207876    0.11470000
opls_146-96    H    0.15422018    0.36970013    0.23773940    0.11130000
opls_525-97    H    0.19213996    0.46600984    0.64530876    0.11390000
opls_525-98    H    0.37111034    0.42742023    0.36689946    0.10490000
opls_526-99    H    0.29859020    0.54142013    0.54895109    0.08280000
opls_146-100    H    0.66467006    0.63805007    0.85220124    0.09150000
opls_146-101    H    0.79015003    0.72248996    0.86627092    0.11490000
opls_146-102    H    0.83648012    0.84018021    0.59484004    0.11400000
opls_146-103    H    0.75572015    0.87119991    0.29207876    0.11460000
opls_146-104    H    0.63029982    0.78451992    0.23773940    0.11140000
opls_525-105    H    0.53399019    0.72613000    0.64530876    0.11390000
opls_525-106    H    0.57258003    0.94369032    0.36689946    0.10500000
opls_526-107    H    0.45858016    0.75717013    0.54895109    0.08280000
opls_146-108    H    0.36194998    0.02662021    0.85220124    0.09150000
opls_146-109    H    0.27751012    0.06766009    0.86627092    0.11490000
opls_146-110    H    0.15982020    0.99630022    0.59484004    0.11400000
opls_146-111    H    0.12879992    0.88451997    0.29207876    0.11460000
opls_146-112    H    0.21547999    0.84577994    0.23773940    0.11140000
opls_525-113    H    0.27387030    0.80786017    0.64530876    0.11390000
opls_525-114    H    0.94369010    0.37111002    0.36689946    0.10490000
opls_526-115    H    0.75716991    0.29859027    0.54895109    0.08280000
opls_146-116    H    0.02662004    0.66467028    0.85220124    0.09150000
opls_146-117    H    0.06766014    0.79015005    0.86627092    0.11490000
opls_146-118    H    0.99630006    0.83647991    0.59484004    0.11400000
opls_146-119    H    0.88452007    0.75571989    0.29207876    0.11460000
opls_146-120    H    0.84577982    0.63029987    0.23773940    0.11130000
opls_525-121    H    0.80786004    0.53399016    0.64530876    0.11400000
opls_525-122    H    0.62888993    0.57258029    0.36689946    0.10490000
opls_526-123    H    0.70140980    0.45857987    0.54895109    0.08280000
opls_146-124    H    0.33532994    0.36194993    0.85220124    0.09150000
opls_146-125    H    0.20984997    0.27751004    0.86627092    0.11490000
opls_146-126    H    0.16351988    0.15981979    0.59484004    0.11410000
opls_146-127    H    0.24427985    0.12880009    0.29207876    0.11460000
opls_146-128    H    0.36970018    0.21548008    0.23773940    0.11130000
opls_525-129    H    0.46600981    0.27387000    0.64530876    0.11390000
opls_525-130    H    0.42742023    0.05631021    0.36689946    0.10490000
opls_526-131    H    0.54141984    0.24282987    0.54895109    0.08280000
opls_146-132    H    0.63805002    0.97337979    0.85220124    0.09160000
opls_146-133    H    0.72248988    0.93233991    0.86627092    0.11490000
opls_146-134    H    0.84017980    0.00369978    0.59484004    0.11400000
opls_146-135    H    0.87120008    0.11548003    0.29207876    0.11460000
opls_146-136    H    0.78452001    0.15422006    0.23773940    0.11130000
opls_525-137    H    0.72612970    0.19213983    0.64530876    0.11390000
