#======================================================================
# Crystal Data Generated By AuToFF
#----------------------------------------------------------------------

data_AuToFF_phase_1

_cell_length_a                         21.1877
_cell_length_b                         21.1877
_cell_length_c                         3.4550
_cell_angle_alpha                      90.00
_cell_angle_beta                       90.00
_cell_angle_gamma                      120.00
_symmetry_space_group_name_H-M_alt     'P 1'
_symmetry_space_group_IT_number        1

loop_
_space_group_symop_operation_xyz
   'x, y, z'

loop_
   _atom_site_label
   _atom_site_type_symbol
   _atom_site_fract_x
   _atom_site_fract_y
   _atom_site_fract_z
   _atom_site_charge
opls_145-0    C    0.30616979    0.71021996    0.50000000    -0.17760000
opls_145-1    C    0.26215996    0.63941972    0.50000000    0.00640000
opls_142-2    C    0.38800023    0.57572010    0.50000000    0.07480000
opls_523-3    C    0.48880999    0.56118968    0.50000000    0.12080000
opls_522-4    C    0.56079976    0.59696966    0.50000000    -0.03950000
opls_523-5    C    0.59705012    0.56082999    0.50000000    -0.03100000
opls_145-6    C    0.71024002    0.30617976    0.50000000    -0.17760000
opls_145-7    C    0.73783964    0.37727975    0.50000000    0.00640000
opls_142-8    C    0.57569005    0.38797019    0.50000000    0.07480000
opls_145-9    C    0.56120978    0.48881988    0.50000000    0.12080000
opls_145-10    C    0.48946978    0.45393968    0.50000000    -0.25490000
opls_145-11    C    0.45392998    0.48947005    0.50000000    -0.25490000
opls_521-12    C    0.07062003    0.40181012    0.50000000    0.07480000
opls_521-13    C    0.96593006    0.29695969    0.50000000    0.07480000
opls_522-14    C    0.92907991    0.33117010    0.50000000    -0.25470000
opls_145-15    C    0.28978015    0.59594999    0.50000000    -0.17760000
opls_145-16    C    0.36058009    0.62273987    0.50000000    0.00640000
opls_142-17    C    0.42427980    0.81228006    0.50000000    0.07480000
opls_523-18    C    0.43881004    0.92761984    0.50000000    0.12080000
opls_522-19    C    0.40302999    0.96382981    0.50000000    -0.03950000
opls_523-20    C    0.43916975    0.03621978    0.50000000    -0.03100000
opls_145-21    C    0.69381996    0.40405982    0.50000000    -0.17760000
opls_145-22    C    0.62272025    0.36056011    0.50000000    0.00640000
opls_142-23    C    0.61202994    0.18771994    0.50000000    0.07480000
opls_145-24    C    0.51118000    0.07238997    0.50000000    0.12080000
opls_145-25    C    0.54606010    0.03552983    0.50000000    -0.25490000
opls_145-26    C    0.51052982    0.96445982    0.50000000    -0.25490000
opls_521-27    C    0.59818999    0.66880973    0.50000000    0.07480000
opls_521-28    C    0.70303985    0.66896996    0.50000000    0.07480000
opls_522-29    C    0.66882985    0.59790976    0.50000000    -0.25470000
opls_145-30    C    0.40405006    0.69383005    0.50000000    -0.17760000
opls_145-31    C    0.37726015    0.73783986    0.50000000    0.00640000
opls_142-32    C    0.18771997    0.61199983    0.50000000    0.07480000
opls_523-33    C    0.07238017    0.51118993    0.50000000    0.12080000
opls_522-34    C    0.03616998    0.43919998    0.50000000    -0.03950000
opls_523-35    C    0.96377986    0.40294968    0.50000000    -0.03100000
opls_145-36    C    0.59593975    0.28975987    0.50000000    -0.17760000
opls_145-37    C    0.63944011    0.26216014    0.50000000    0.00640000
opls_142-38    C    0.81228001    0.42430987    0.50000000    0.07480000
opls_145-39    C    0.92761022    0.43879015    0.50000000    0.12080000
opls_145-40    C    0.96446984    0.51052995    0.50000000    -0.25490000
opls_145-41    C    0.03554020    0.54607013    0.50000000    -0.25490000
opls_521-42    C    0.33118971    0.92937960    0.50000000    0.07480000
opls_521-43    C    0.33102982    0.03406981    0.50000000    0.07480000
opls_522-44    C    0.40209024    0.07092014    0.50000000    -0.25470000
opls_750-45    N    0.59930984    0.45340995    0.50000000    -0.21980000
opls_750-46    N    0.45344006    0.59932999    0.50000000    -0.22010000
opls_520-47    N    0.03508981    0.33257998    0.50000000    -0.19430000
opls_750-48    N    0.54658983    0.14589988    0.50000000    -0.21980000
opls_750-49    N    0.40066985    0.85410993    0.50000000    -0.22010000
opls_520-50    N    0.66742006    0.70251004    0.50000000    -0.19430000
opls_750-51    N    0.85409986    0.40069017    0.50000000    -0.21980000
opls_750-52    N    0.14589009    0.54656007    0.50000000    -0.22010000
opls_520-53    N    0.29749013    0.96490998    0.50000000    -0.19430000
opls_144-54    H    0.35223007    0.52158990    0.50000000    0.08610000
opls_144-55    H    0.52156979    0.35220003    0.50000000    0.08610000
opls_146-56    H    0.45972985    0.39898981    0.50000000    0.18330000
opls_146-57    H    0.39899010    0.45971980    0.50000000    0.18400000
opls_524-58    H    0.93940007    0.24180981    0.50000000    0.09010000
opls_525-59    H    0.87392971    0.30130977    0.50000000    0.18380000
opls_524-60    H    0.12575011    0.42722010    0.50000000    0.09000000
opls_146-61    H    0.28484003    0.74371972    0.50000000    0.18360000
opls_146-62    H    0.74373986    0.28486971    0.50000000    0.18380000
opls_144-63    H    0.47840996    0.83064010    0.50000000    0.08610000
opls_144-64    H    0.64779977    0.16936971    0.50000000    0.08610000
opls_146-65    H    0.60100994    0.06073980    0.50000000    0.18330000
opls_146-66    H    0.54028024    0.93927001    0.50000000    0.18400000
opls_524-67    H    0.75819003    0.69758991    0.50000000    0.09010000
opls_525-68    H    0.69868966    0.57261968    0.50000000    0.18380000
opls_524-69    H    0.57278006    0.69853001    0.50000000    0.09000000
opls_146-70    H    0.25628003    0.54112002    0.50000000    0.18360000
opls_146-71    H    0.71513009    0.45887017    0.50000000    0.18380000
opls_144-72    H    0.16935997    0.64777000    0.50000000    0.08610000
opls_144-73    H    0.83062969    0.47842972    0.50000000    0.08610000
opls_146-74    H    0.93925993    0.54026984    0.50000000    0.18330000
opls_146-75    H    0.06072986    0.60100964    0.50000000    0.18400000
opls_524-76    H    0.30241010    0.06059974    0.50000000    0.09010000
opls_525-77    H    0.42737989    0.12607001    0.50000000    0.18380000
opls_524-78    H    0.30146983    0.87424989    0.50000000    0.09000000
opls_146-79    H    0.45887967    0.71515972    0.50000000    0.18360000
opls_146-80    H    0.54113006    0.25626012    0.50000000    0.18380000
