#======================================================================
# Crystal Data Generated By AuToFF
#----------------------------------------------------------------------

data_AuToFF_phase_1

_cell_length_a                         35.5540
_cell_length_b                         35.5540
_cell_length_c                         11.3510
_cell_angle_alpha                      90.00
_cell_angle_beta                       90.00
_cell_angle_gamma                      90.00
_symmetry_space_group_name_H-M_alt     'P 1'
_symmetry_space_group_IT_number        1

loop_
_space_group_symop_operation_xyz
   'x, y, z'

loop_
   _atom_site_label
   _atom_site_type_symbol
   _atom_site_fract_x
   _atom_site_fract_y
   _atom_site_fract_z
   _atom_site_charge
opls_145-0    C    0.50000000    0.73196996    0.23150031    0.01790000
opls_700-1    C    0.50000000    0.58223997    0.74504978    0.11080000
opls_145-2    C    0.50000000    0.59323002    0.86336975    -0.09120000
opls_145-3    C    0.50000000    0.56788013    0.95544005    -0.09690000
opls_716-4    C    0.50000000    0.53176998    0.91871025    -0.01070000
opls_716-5    C    0.50000000    0.48016988    0.80820016    -0.00290000
opls_145-6    C    0.50000000    0.54444001    0.72122985    -0.08990000
opls_145-7    C    0.50000000    0.60891995    0.64544974    0.11780000
opls_145-8    C    0.50000000    0.59637003    0.53199982    -0.13490000
opls_145-9    C    0.50000000    0.61974011    0.43983966    -0.13970000
opls_145-10    C    0.50000000    0.65689993    0.45396000    0.28570000
opls_145-11    C    0.50000000    0.67061006    0.56495022    -0.11920000
opls_145-12    C    0.50000000    0.64696012    0.65923971    -0.09370000
opls_142-13    C    0.50000000    0.71371013    0.34427980    0.12480000
opls_145-14    C    0.50000000    0.78761011    0.12048013    -0.13470000
opls_145-15    C    0.50000000    0.76976993    0.22538983    -0.13540000
opls_145-16    C    0.00000000    0.23196996    0.73150031    0.01790000
opls_700-17    C    0.00000000    0.08223997    0.24504978    0.11080000
opls_145-18    C    0.00000000    0.09323002    0.36336975    -0.09120000
opls_145-19    C    0.00000000    0.06788013    0.45544005    -0.09690000
opls_716-20    C    0.00000000    0.03176998    0.41871025    -0.01070000
opls_716-21    C    0.00000000    0.98016988    0.30820016    -0.00290000
opls_145-22    C    0.00000000    0.04444001    0.22122985    -0.08990000
opls_145-23    C    0.00000000    0.10891995    0.14544974    0.11780000
opls_145-24    C    0.00000000    0.09637003    0.03199982    -0.13480000
opls_145-25    C    0.00000000    0.11974011    0.93983966    -0.13990000
opls_145-26    C    0.00000000    0.15689993    0.95396000    0.28580000
opls_145-27    C    0.00000000    0.17061006    0.06495022    -0.11920000
opls_145-28    C    0.00000000    0.14696012    0.15923971    -0.09370000
opls_142-29    C    0.00000000    0.21371013    0.84427980    0.12480000
opls_145-30    C    0.00000000    0.28761011    0.62048013    -0.13470000
opls_145-31    C    0.00000000    0.26976993    0.72538983    -0.13530000
opls_145-32    C    0.00000000    0.76803004    0.73150031    0.01790000
opls_700-33    C    0.00000000    0.91776003    0.24504978    0.11080000
opls_145-34    C    0.00000000    0.90676998    0.36336975    -0.09120000
opls_145-35    C    0.00000000    0.93211987    0.45544005    -0.09690000
opls_716-36    C    0.00000000    0.96823002    0.41871025    -0.01070000
opls_716-37    C    0.00000000    0.01983012    0.30820016    -0.00290000
opls_145-38    C    0.00000000    0.95555999    0.22122985    -0.08990000
opls_145-39    C    0.00000000    0.89108005    0.14544974    0.11780000
opls_145-40    C    0.00000000    0.90362997    0.03199982    -0.13490000
opls_145-41    C    0.00000000    0.88025989    0.93983966    -0.13990000
opls_145-42    C    0.00000000    0.84310007    0.95396000    0.28580000
opls_145-43    C    0.00000000    0.82938994    0.06495022    -0.11920000
opls_145-44    C    0.00000000    0.85303988    0.15923971    -0.09370000
opls_142-45    C    0.00000000    0.78628987    0.84427980    0.12480000
opls_145-46    C    0.00000000    0.71238989    0.62048013    -0.13460000
opls_145-47    C    0.00000000    0.73023007    0.72538983    -0.13540000
opls_145-48    C    0.50000000    0.26803004    0.23150031    0.01790000
opls_700-49    C    0.50000000    0.41776003    0.74504978    0.11080000
opls_145-50    C    0.50000000    0.40676998    0.86336975    -0.09120000
opls_145-51    C    0.50000000    0.43211987    0.95544005    -0.09680000
opls_716-52    C    0.50000000    0.46823002    0.91871025    -0.01070000
opls_716-53    C    0.50000000    0.51983012    0.80820016    -0.00290000
opls_145-54    C    0.50000000    0.45555999    0.72122985    -0.08990000
opls_145-55    C    0.50000000    0.39108005    0.64544974    0.11780000
opls_145-56    C    0.50000000    0.40362997    0.53199982    -0.13490000
opls_145-57    C    0.50000000    0.38025989    0.43983966    -0.13990000
opls_145-58    C    0.50000000    0.34310007    0.45396000    0.28570000
opls_145-59    C    0.50000000    0.32938994    0.56495022    -0.11920000
opls_145-60    C    0.50000000    0.35303988    0.65923971    -0.09370000
opls_142-61    C    0.50000000    0.28628987    0.34427980    0.12480000
opls_145-62    C    0.50000000    0.21238989    0.12048013    -0.13470000
opls_145-63    C    0.50000000    0.23023007    0.22538983    -0.13540000
opls_145-64    C    0.26803004    0.00000000    0.48150031    0.01790000
opls_700-65    C    0.41776003    0.00000000    0.99504978    0.11080000
opls_145-66    C    0.40676998    0.00000000    0.11336975    -0.09120000
opls_145-67    C    0.43211987    0.00000000    0.20544005    -0.09690000
opls_716-68    C    0.46823002    0.00000000    0.16871025    -0.01070000
opls_716-69    C    0.51983012    0.00000000    0.05820016    -0.00290000
opls_145-70    C    0.45555999    0.00000000    0.97122985    -0.08990000
opls_145-71    C    0.39108005    0.00000000    0.89544974    0.11780000
opls_145-72    C    0.40362997    0.00000000    0.78199982    -0.13490000
opls_145-73    C    0.38025989    0.00000000    0.68983966    -0.13990000
opls_145-74    C    0.34310007    0.00000000    0.70396000    0.28580000
opls_145-75    C    0.32938994    0.00000000    0.81495022    -0.11920000
opls_145-76    C    0.35303988    0.00000000    0.90923971    -0.09370000
opls_142-77    C    0.28628987    0.00000000    0.59427980    0.12480000
opls_145-78    C    0.21238989    0.00000000    0.37048013    -0.13470000
opls_145-79    C    0.23023007    0.00000000    0.47538983    -0.13540000
opls_145-80    C    0.23196996    0.50000000    0.98150031    0.01790000
opls_700-81    C    0.08223997    0.50000000    0.49504978    0.11080000
opls_145-82    C    0.09323002    0.50000000    0.61336975    -0.09120000
opls_145-83    C    0.06788013    0.50000000    0.70544005    -0.09690000
opls_716-84    C    0.03176998    0.50000000    0.66871025    -0.01070000
opls_716-85    C    0.98016988    0.50000000    0.55820016    -0.00290000
opls_145-86    C    0.04444001    0.50000000    0.47122985    -0.08990000
opls_145-87    C    0.10891995    0.50000000    0.39544974    0.11780000
opls_145-88    C    0.09637003    0.50000000    0.28199982    -0.13490000
opls_145-89    C    0.11974011    0.50000000    0.18983966    -0.13990000
opls_145-90    C    0.15689993    0.50000000    0.20396000    0.28570000
opls_145-91    C    0.17061006    0.50000000    0.31495022    -0.11920000
opls_145-92    C    0.14696012    0.50000000    0.40923971    -0.09370000
opls_142-93    C    0.21371013    0.50000000    0.09427980    0.12490000
opls_145-94    C    0.28761011    0.50000000    0.87048013    -0.13470000
opls_145-95    C    0.26976993    0.50000000    0.97538983    -0.13540000
opls_145-96    C    0.00000000    0.73196996    0.51849969    0.01790000
opls_700-97    C    0.00000000    0.58223997    0.00495022    0.11080000
opls_145-98    C    0.00000000    0.59323002    0.88663025    -0.09120000
opls_145-99    C    0.00000000    0.56788013    0.79455995    -0.09690000
opls_716-100    C    0.00000000    0.53176998    0.83128975    -0.01070000
opls_716-101    C    0.00000000    0.48016988    0.94179984    -0.00290000
opls_145-102    C    0.00000000    0.54444001    0.02877015    -0.08990000
opls_145-103    C    0.00000000    0.60891995    0.10455026    0.11780000
opls_145-104    C    0.00000000    0.59637003    0.21800018    -0.13490000
opls_145-105    C    0.00000000    0.61974011    0.31016034    -0.13990000
opls_145-106    C    0.00000000    0.65689993    0.29604000    0.28570000
opls_145-107    C    0.00000000    0.67061006    0.18504978    -0.11920000
opls_145-108    C    0.00000000    0.64696012    0.09076029    -0.09370000
opls_142-109    C    0.00000000    0.71371013    0.40572020    0.12480000
opls_145-110    C    0.00000000    0.78761011    0.62951987    -0.13470000
opls_145-111    C    0.00000000    0.76976993    0.52461017    -0.13530000
opls_145-112    C    0.50000000    0.23196996    0.01849969    0.01790000
opls_700-113    C    0.50000000    0.08223997    0.50495022    0.11080000
opls_145-114    C    0.50000000    0.09323002    0.38663025    -0.09120000
opls_145-115    C    0.50000000    0.06788013    0.29455995    -0.09690000
opls_716-116    C    0.50000000    0.03176998    0.33128975    -0.01070000
opls_716-117    C    0.50000000    0.98016988    0.44179984    -0.00290000
opls_145-118    C    0.50000000    0.04444001    0.52877015    -0.08990000
opls_145-119    C    0.50000000    0.10891995    0.60455026    0.11780000
opls_145-120    C    0.50000000    0.09637003    0.71800018    -0.13490000
opls_145-121    C    0.50000000    0.11974011    0.81016034    -0.13990000
opls_145-122    C    0.50000000    0.15689993    0.79604000    0.28570000
opls_145-123    C    0.50000000    0.17061006    0.68504978    -0.11920000
opls_145-124    C    0.50000000    0.14696012    0.59076029    -0.09370000
opls_142-125    C    0.50000000    0.21371013    0.90572020    0.12480000
opls_145-126    C    0.50000000    0.28761011    0.12951987    -0.13470000
opls_145-127    C    0.50000000    0.26976993    0.02461017    -0.13530000
opls_145-128    C    0.50000000    0.76803004    0.01849969    0.01790000
opls_700-129    C    0.50000000    0.91776003    0.50495022    0.11090000
opls_145-130    C    0.50000000    0.90676998    0.38663025    -0.09120000
opls_145-131    C    0.50000000    0.93211987    0.29455995    -0.09690000
opls_716-132    C    0.50000000    0.96823002    0.33128975    -0.01070000
opls_716-133    C    0.50000000    0.01983012    0.44179984    -0.00290000
opls_145-134    C    0.50000000    0.95555999    0.52877015    -0.08990000
opls_145-135    C    0.50000000    0.89108005    0.60455026    0.11780000
opls_145-136    C    0.50000000    0.90362997    0.71800018    -0.13490000
opls_145-137    C    0.50000000    0.88025989    0.81016034    -0.13980000
opls_145-138    C    0.50000000    0.84310007    0.79604000    0.28570000
opls_145-139    C    0.50000000    0.82938994    0.68504978    -0.11920000
opls_145-140    C    0.50000000    0.85303988    0.59076029    -0.09370000
opls_142-141    C    0.50000000    0.78628987    0.90572020    0.12480000
opls_145-142    C    0.50000000    0.71238989    0.12951987    -0.13470000
opls_145-143    C    0.50000000    0.73023007    0.02461017    -0.13540000
opls_145-144    C    0.00000000    0.26803004    0.51849969    0.01790000
opls_700-145    C    0.00000000    0.41776003    0.00495022    0.11080000
opls_145-146    C    0.00000000    0.40676998    0.88663025    -0.09120000
opls_145-147    C    0.00000000    0.43211987    0.79455995    -0.09680000
opls_716-148    C    0.00000000    0.46823002    0.83128975    -0.01070000
opls_716-149    C    0.00000000    0.51983012    0.94179984    -0.00290000
opls_145-150    C    0.00000000    0.45555999    0.02877015    -0.08990000
opls_145-151    C    0.00000000    0.39108005    0.10455026    0.11780000
opls_145-152    C    0.00000000    0.40362997    0.21800018    -0.13480000
opls_145-153    C    0.00000000    0.38025989    0.31016034    -0.13990000
opls_145-154    C    0.00000000    0.34310007    0.29604000    0.28570000
opls_145-155    C    0.00000000    0.32938994    0.18504978    -0.11890000
opls_145-156    C    0.00000000    0.35303988    0.09076029    -0.09370000
opls_142-157    C    0.00000000    0.28628987    0.40572020    0.12480000
opls_145-158    C    0.00000000    0.21238989    0.62951987    -0.13470000
opls_145-159    C    0.00000000    0.23023007    0.52461017    -0.13540000
opls_145-160    C    0.23196996    0.00000000    0.26849969    0.01790000
opls_700-161    C    0.08223997    0.00000000    0.75495022    0.11090000
opls_145-162    C    0.09323002    0.00000000    0.63663025    -0.09120000
opls_145-163    C    0.06788013    0.00000000    0.54455995    -0.09680000
opls_716-164    C    0.03176998    0.00000000    0.58128975    -0.01070000
opls_716-165    C    0.98016988    0.00000000    0.69179984    -0.00290000
opls_145-166    C    0.04444001    0.00000000    0.77877015    -0.08990000
opls_145-167    C    0.10891995    0.00000000    0.85455026    0.11780000
opls_145-168    C    0.09637003    0.00000000    0.96800018    -0.13490000
opls_145-169    C    0.11974011    0.00000000    0.06016034    -0.13990000
opls_145-170    C    0.15689993    0.00000000    0.04604000    0.28570000
opls_145-171    C    0.17061006    0.00000000    0.93504978    -0.11920000
opls_145-172    C    0.14696012    0.00000000    0.84076029    -0.09370000
opls_142-173    C    0.21371013    0.00000000    0.15572020    0.12480000
opls_145-174    C    0.28761011    0.00000000    0.37951987    -0.13470000
opls_145-175    C    0.26976993    0.00000000    0.27461017    -0.13540000
opls_145-176    C    0.26803004    0.50000000    0.76849969    0.01790000
opls_700-177    C    0.41776003    0.50000000    0.25495022    0.11080000
opls_145-178    C    0.40676998    0.50000000    0.13663025    -0.09120000
opls_145-179    C    0.43211987    0.50000000    0.04455995    -0.09690000
opls_716-180    C    0.46823002    0.50000000    0.08128975    -0.01070000
opls_716-181    C    0.51983012    0.50000000    0.19179984    -0.00290000
opls_145-182    C    0.45555999    0.50000000    0.27877015    -0.08990000
opls_145-183    C    0.39108005    0.50000000    0.35455026    0.11780000
opls_145-184    C    0.40362997    0.50000000    0.46800018    -0.13490000
opls_145-185    C    0.38025989    0.50000000    0.56016034    -0.13990000
opls_145-186    C    0.34310007    0.50000000    0.54604000    0.28580000
opls_145-187    C    0.32938994    0.50000000    0.43504978    -0.11910000
opls_145-188    C    0.35303988    0.50000000    0.34076029    -0.09370000
opls_142-189    C    0.28628987    0.50000000    0.65572020    0.12480000
opls_145-190    C    0.21238989    0.50000000    0.87951987    -0.13470000
opls_145-191    C    0.23023007    0.50000000    0.77461017    -0.13540000
opls_145-192    C    0.73196996    0.50000000    0.76849969    0.01790000
opls_700-193    C    0.58223997    0.50000000    0.25495022    0.11090000
opls_145-194    C    0.59323002    0.50000000    0.13663025    -0.09110000
opls_145-195    C    0.56788013    0.50000000    0.04455995    -0.09690000
opls_716-196    C    0.53176998    0.50000000    0.08128975    -0.01070000
opls_716-197    C    0.48016988    0.50000000    0.19179984    -0.00290000
opls_145-198    C    0.54444001    0.50000000    0.27877015    -0.08990000
opls_145-199    C    0.60891995    0.50000000    0.35455026    0.11780000
opls_145-200    C    0.59637003    0.50000000    0.46800018    -0.13490000
opls_145-201    C    0.61974011    0.50000000    0.56016034    -0.13990000
opls_145-202    C    0.65689993    0.50000000    0.54604000    0.28600000
opls_145-203    C    0.67061006    0.50000000    0.43504978    -0.11920000
opls_145-204    C    0.64696012    0.50000000    0.34076029    -0.09370000
opls_142-205    C    0.71371013    0.50000000    0.65572020    0.12480000
opls_145-206    C    0.78761011    0.50000000    0.87951987    -0.13470000
opls_145-207    C    0.76976993    0.50000000    0.77461017    -0.13540000
opls_145-208    C    0.76803004    0.00000000    0.26849969    0.01790000
opls_700-209    C    0.91776003    0.00000000    0.75495022    0.11080000
opls_145-210    C    0.90676998    0.00000000    0.63663025    -0.09120000
opls_145-211    C    0.93211987    0.00000000    0.54455995    -0.09690000
opls_716-212    C    0.96823002    0.00000000    0.58128975    -0.01070000
opls_716-213    C    0.01983012    0.00000000    0.69179984    -0.00290000
opls_145-214    C    0.95555999    0.00000000    0.77877015    -0.08990000
opls_145-215    C    0.89108005    0.00000000    0.85455026    0.11790000
opls_145-216    C    0.90362997    0.00000000    0.96800018    -0.13490000
opls_145-217    C    0.88025989    0.00000000    0.06016034    -0.13990000
opls_145-218    C    0.84310007    0.00000000    0.04604000    0.28600000
opls_145-219    C    0.82938994    0.00000000    0.93504978    -0.11920000
opls_145-220    C    0.85303988    0.00000000    0.84076029    -0.09370000
opls_142-221    C    0.78628987    0.00000000    0.15572020    0.12480000
opls_145-222    C    0.71238989    0.00000000    0.37951987    -0.13470000
opls_145-223    C    0.73023007    0.00000000    0.27461017    -0.13540000
opls_145-224    C    0.76803004    0.50000000    0.98150031    0.01790000
opls_700-225    C    0.91776003    0.50000000    0.49504978    0.11080000
opls_145-226    C    0.90676998    0.50000000    0.61336975    -0.09110000
opls_145-227    C    0.93211987    0.50000000    0.70544005    -0.09690000
opls_716-228    C    0.96823002    0.50000000    0.66871025    -0.01070000
opls_716-229    C    0.01983012    0.50000000    0.55820016    -0.00290000
opls_145-230    C    0.95555999    0.50000000    0.47122985    -0.08990000
opls_145-231    C    0.89108005    0.50000000    0.39544974    0.11790000
opls_145-232    C    0.90362997    0.50000000    0.28199982    -0.13490000
opls_145-233    C    0.88025989    0.50000000    0.18983966    -0.13990000
opls_145-234    C    0.84310007    0.50000000    0.20396000    0.28570000
opls_145-235    C    0.82938994    0.50000000    0.31495022    -0.11920000
opls_145-236    C    0.85303988    0.50000000    0.40923971    -0.09360000
opls_142-237    C    0.78628987    0.50000000    0.09427980    0.12490000
opls_145-238    C    0.71238989    0.50000000    0.87048013    -0.13470000
opls_145-239    C    0.73023007    0.50000000    0.97538983    -0.13540000
opls_145-240    C    0.73196996    0.00000000    0.48150031    0.01790000
opls_700-241    C    0.58223997    0.00000000    0.99504978    0.11090000
opls_145-242    C    0.59323002    0.00000000    0.11336975    -0.09120000
opls_145-243    C    0.56788013    0.00000000    0.20544005    -0.09690000
opls_716-244    C    0.53176998    0.00000000    0.16871025    -0.01070000
opls_716-245    C    0.48016988    0.00000000    0.05820016    -0.00290000
opls_145-246    C    0.54444001    0.00000000    0.97122985    -0.08990000
opls_145-247    C    0.60891995    0.00000000    0.89544974    0.11780000
opls_145-248    C    0.59637003    0.00000000    0.78199982    -0.13490000
opls_145-249    C    0.61974011    0.00000000    0.68983966    -0.13980000
opls_145-250    C    0.65689993    0.00000000    0.70396000    0.28570000
opls_145-251    C    0.67061006    0.00000000    0.81495022    -0.11920000
opls_145-252    C    0.64696012    0.00000000    0.90923971    -0.09370000
opls_142-253    C    0.71371013    0.00000000    0.59427980    0.12490000
opls_145-254    C    0.78761011    0.00000000    0.37048013    -0.13470000
opls_145-255    C    0.76976993    0.00000000    0.47538983    -0.13540000
opls_139-256    C    0.50000000    0.50000000    0.00000000    -0.00930000
opls_139-257    C    0.00000000    0.00000000    0.50000000    -0.00930000
opls_139-258    C    0.50000000    0.00000000    0.25000000    -0.00930000
opls_139-259    C    0.00000000    0.50000000    0.75000000    -0.00930000
opls_146-260    H    0.50000000    0.62436997    0.88729011    0.05420000
opls_146-261    H    0.50000000    0.53420009    0.62606026    0.05420000
opls_146-262    H    0.50000000    0.56487990    0.51302969    0.05420000
opls_146-263    H    0.50000000    0.60797013    0.34641970    0.05420000
opls_146-264    H    0.50000000    0.70229004    0.58039996    0.05420000
opls_146-265    H    0.50000000    0.65969005    0.75140957    0.05420000
opls_146-266    H    0.50000000    0.57844012    0.05026958    0.05420000
opls_146-267    H    0.50000000    0.81965995    0.11704960    0.05420000
opls_146-268    H    0.50000000    0.78720988    0.30965994    0.05420000
opls_146-269    H    0.00000000    0.12436997    0.38729011    0.05420000
opls_146-270    H    0.00000000    0.03420009    0.12606026    0.05420000
opls_146-271    H    0.00000000    0.06487990    0.01302969    0.05420000
opls_146-272    H    0.00000000    0.10797013    0.84641970    0.05420000
opls_146-273    H    0.00000000    0.20229004    0.08039996    0.05420000
opls_146-274    H    0.00000000    0.15969005    0.25140957    0.05420000
opls_146-275    H    0.00000000    0.07844012    0.55026958    0.05420000
opls_146-276    H    0.00000000    0.31965995    0.61704960    0.05420000
opls_146-277    H    0.00000000    0.28720988    0.80965994    0.05420000
opls_146-278    H    0.00000000    0.87563003    0.38729011    0.05420000
opls_146-279    H    0.00000000    0.96579991    0.12606026    0.05420000
opls_146-280    H    0.00000000    0.93512010    0.01302969    0.05420000
opls_146-281    H    0.00000000    0.89202987    0.84641970    0.05420000
opls_146-282    H    0.00000000    0.79770996    0.08039996    0.05420000
opls_146-283    H    0.00000000    0.84030995    0.25140957    0.05420000
opls_146-284    H    0.00000000    0.92155988    0.55026958    0.05420000
opls_146-285    H    0.00000000    0.68034005    0.61704960    0.05420000
opls_146-286    H    0.00000000    0.71279012    0.80965994    0.05420000
opls_146-287    H    0.50000000    0.37563003    0.88729011    0.05420000
opls_146-288    H    0.50000000    0.46579991    0.62606026    0.05420000
opls_146-289    H    0.50000000    0.43512010    0.51302969    0.05420000
opls_146-290    H    0.50000000    0.39202987    0.34641970    0.05420000
opls_146-291    H    0.50000000    0.29770996    0.58039996    0.05420000
opls_146-292    H    0.50000000    0.34030995    0.75140957    0.05420000
opls_146-293    H    0.50000000    0.42155988    0.05026958    0.05430000
opls_146-294    H    0.50000000    0.18034005    0.11704960    0.05420000
opls_146-295    H    0.50000000    0.21279012    0.30965994    0.05420000
opls_146-296    H    0.37563003    0.00000000    0.13729011    0.05430000
opls_146-297    H    0.46579991    0.00000000    0.87606026    0.05430000
opls_146-298    H    0.43512010    0.00000000    0.76302969    0.05420000
opls_146-299    H    0.39202987    0.00000000    0.59641970    0.05420000
opls_146-300    H    0.29770996    0.00000000    0.83039996    0.05420000
opls_146-301    H    0.34030995    0.00000000    0.00140957    0.05420000
opls_146-302    H    0.42155988    0.00000000    0.30026958    0.05420000
opls_146-303    H    0.18034005    0.00000000    0.36704960    0.05420000
opls_146-304    H    0.21279012    0.00000000    0.55965994    0.05420000
opls_146-305    H    0.12436997    0.50000000    0.63729011    0.05430000
opls_146-306    H    0.03420009    0.50000000    0.37606026    0.05420000
opls_146-307    H    0.06487990    0.50000000    0.26302969    0.05420000
opls_146-308    H    0.10797013    0.50000000    0.09641970    0.05420000
opls_146-309    H    0.20229004    0.50000000    0.33039996    0.05420000
opls_146-310    H    0.15969005    0.50000000    0.50140957    0.05430000
opls_146-311    H    0.07844012    0.50000000    0.80026958    0.05420000
opls_146-312    H    0.31965995    0.50000000    0.86704960    0.05420000
opls_146-313    H    0.28720988    0.50000000    0.05965994    0.05420000
opls_146-314    H    0.00000000    0.62436997    0.86270989    0.05420000
opls_146-315    H    0.00000000    0.53420009    0.12393974    0.05420000
opls_146-316    H    0.00000000    0.56487990    0.23697031    0.05420000
opls_146-317    H    0.00000000    0.60797013    0.40358030    0.05420000
opls_146-318    H    0.00000000    0.70229004    0.16960004    0.05420000
opls_146-319    H    0.00000000    0.65969005    0.99859043    0.05420000
opls_146-320    H    0.00000000    0.57844012    0.69973042    0.05420000
opls_146-321    H    0.00000000    0.81965995    0.63295040    0.05420000
opls_146-322    H    0.00000000    0.78720988    0.44034006    0.05420000
opls_146-323    H    0.50000000    0.12436997    0.36270989    0.05420000
opls_146-324    H    0.50000000    0.03420009    0.62393974    0.05420000
opls_146-325    H    0.50000000    0.06487990    0.73697031    0.05420000
opls_146-326    H    0.50000000    0.10797013    0.90358030    0.05420000
opls_146-327    H    0.50000000    0.20229004    0.66960004    0.05420000
opls_146-328    H    0.50000000    0.15969005    0.49859043    0.05420000
opls_146-329    H    0.50000000    0.07844012    0.19973042    0.05420000
opls_146-330    H    0.50000000    0.31965995    0.13295040    0.05420000
opls_146-331    H    0.50000000    0.28720988    0.94034006    0.05420000
opls_146-332    H    0.50000000    0.87563003    0.36270989    0.05420000
opls_146-333    H    0.50000000    0.96579991    0.62393974    0.05420000
opls_146-334    H    0.50000000    0.93512010    0.73697031    0.05430000
opls_146-335    H    0.50000000    0.89202987    0.90358030    0.05420000
opls_146-336    H    0.50000000    0.79770996    0.66960004    0.05420000
opls_146-337    H    0.50000000    0.84030995    0.49859043    0.05420000
opls_146-338    H    0.50000000    0.92155988    0.19973042    0.05420000
opls_146-339    H    0.50000000    0.68034005    0.13295040    0.05420000
opls_146-340    H    0.50000000    0.71279012    0.94034006    0.05420000
opls_146-341    H    0.00000000    0.37563003    0.86270989    0.05420000
opls_146-342    H    0.00000000    0.46579991    0.12393974    0.05420000
opls_146-343    H    0.00000000    0.43512010    0.23697031    0.05420000
opls_146-344    H    0.00000000    0.39202987    0.40358030    0.05420000
opls_146-345    H    0.00000000    0.29770996    0.16960004    0.05420000
opls_146-346    H    0.00000000    0.34030995    0.99859043    0.05420000
opls_146-347    H    0.00000000    0.42155988    0.69973042    0.05420000
opls_146-348    H    0.00000000    0.18034005    0.63295040    0.05420000
opls_146-349    H    0.00000000    0.21279012    0.44034006    0.05420000
opls_146-350    H    0.12436997    0.00000000    0.61270989    0.05420000
opls_146-351    H    0.03420009    0.00000000    0.87393974    0.05420000
opls_146-352    H    0.06487990    0.00000000    0.98697031    0.05420000
opls_146-353    H    0.10797013    0.00000000    0.15358030    0.05420000
opls_146-354    H    0.20229004    0.00000000    0.91960004    0.05420000
opls_146-355    H    0.15969005    0.00000000    0.74859043    0.05420000
opls_146-356    H    0.07844012    0.00000000    0.44973042    0.05420000
opls_146-357    H    0.31965995    0.00000000    0.38295040    0.05420000
opls_146-358    H    0.28720988    0.00000000    0.19034006    0.05420000
opls_146-359    H    0.37563003    0.50000000    0.11270989    0.05420000
opls_146-360    H    0.46579991    0.50000000    0.37393974    0.05430000
opls_146-361    H    0.43512010    0.50000000    0.48697031    0.05420000
opls_146-362    H    0.39202987    0.50000000    0.65358030    0.05420000
opls_146-363    H    0.29770996    0.50000000    0.41960004    0.05420000
opls_146-364    H    0.34030995    0.50000000    0.24859043    0.05420000
opls_146-365    H    0.42155988    0.50000000    0.94973042    0.05420000
opls_146-366    H    0.18034005    0.50000000    0.88295040    0.05420000
opls_146-367    H    0.21279012    0.50000000    0.69034006    0.05420000
opls_146-368    H    0.62436997    0.50000000    0.11270989    0.05420000
opls_146-369    H    0.53420009    0.50000000    0.37393974    0.05420000
opls_146-370    H    0.56487990    0.50000000    0.48697031    0.05420000
opls_146-371    H    0.60797013    0.50000000    0.65358030    0.05420000
opls_146-372    H    0.70229004    0.50000000    0.41960004    0.05420000
opls_146-373    H    0.65969005    0.50000000    0.24859043    0.05420000
opls_146-374    H    0.57844012    0.50000000    0.94973042    0.05420000
opls_146-375    H    0.81965995    0.50000000    0.88295040    0.05430000
opls_146-376    H    0.78720988    0.50000000    0.69034006    0.05420000
opls_146-377    H    0.87563003    0.00000000    0.61270989    0.05420000
opls_146-378    H    0.96579991    0.00000000    0.87393974    0.05420000
opls_146-379    H    0.93512010    0.00000000    0.98697031    0.05420000
opls_146-380    H    0.89202987    0.00000000    0.15358030    0.05420000
opls_146-381    H    0.79770996    0.00000000    0.91960004    0.05420000
opls_146-382    H    0.84030995    0.00000000    0.74859043    0.05420000
opls_146-383    H    0.92155988    0.00000000    0.44973042    0.05420000
opls_146-384    H    0.68034005    0.00000000    0.38295040    0.05420000
opls_146-385    H    0.71279012    0.00000000    0.19034006    0.05420000
opls_146-386    H    0.87563003    0.50000000    0.63729011    0.05420000
opls_146-387    H    0.96579991    0.50000000    0.37606026    0.05420000
opls_146-388    H    0.93512010    0.50000000    0.26302969    0.05420000
opls_146-389    H    0.89202987    0.50000000    0.09641970    0.05420000
opls_146-390    H    0.79770996    0.50000000    0.33039996    0.05420000
opls_146-391    H    0.84030995    0.50000000    0.50140957    0.05420000
opls_146-392    H    0.92155988    0.50000000    0.80026958    0.05420000
opls_146-393    H    0.68034005    0.50000000    0.86704960    0.05420000
opls_146-394    H    0.71279012    0.50000000    0.05965994    0.05420000
opls_146-395    H    0.62436997    0.00000000    0.13729011    0.05420000
opls_146-396    H    0.53420009    0.00000000    0.87606026    0.05420000
opls_146-397    H    0.56487990    0.00000000    0.76302969    0.05420000
opls_146-398    H    0.60797013    0.00000000    0.59641970    0.05430000
opls_146-399    H    0.70229004    0.00000000    0.83039996    0.05420000
opls_146-400    H    0.65969005    0.00000000    0.00140957    0.05420000
opls_146-401    H    0.57844012    0.00000000    0.30026958    0.05420000
opls_146-402    H    0.81965995    0.00000000    0.36704960    0.05420000
opls_146-403    H    0.78720988    0.00000000    0.55965994    0.05420000
opls_144-404    H    0.50000000    0.73122012    0.42840983    0.03200000
opls_144-405    H    0.00000000    0.23122012    0.92840983    0.03200000
opls_144-406    H    0.00000000    0.76877988    0.92840983    0.03200000
opls_144-407    H    0.50000000    0.26877988    0.42840983    0.03200000
opls_144-408    H    0.26877988    0.00000000    0.67840983    0.03200000
opls_144-409    H    0.23122012    0.50000000    0.17840983    0.03200000
opls_144-410    H    0.00000000    0.73122012    0.32159017    0.03200000
opls_144-411    H    0.50000000    0.23122012    0.82159017    0.03200000
opls_144-412    H    0.50000000    0.76877988    0.82159017    0.03200000
opls_144-413    H    0.00000000    0.26877988    0.32159017    0.03200000
opls_144-414    H    0.23122012    0.00000000    0.07159017    0.03200000
opls_144-415    H    0.26877988    0.50000000    0.57159017    0.03200000
opls_144-416    H    0.73122012    0.50000000    0.57159017    0.03210000
opls_144-417    H    0.76877988    0.00000000    0.07159017    0.03210000
opls_144-418    H    0.76877988    0.50000000    0.17840983    0.03200000
opls_144-419    H    0.73122012    0.00000000    0.67840983    0.03200000
opls_750-420    N    0.50000000    0.67875991    0.35276011    -0.12540000
opls_750-421    N    0.00000000    0.17875991    0.85276011    -0.12540000
opls_750-422    N    0.00000000    0.82124009    0.85276011    -0.12540000
opls_750-423    N    0.50000000    0.32124009    0.35276011    -0.12540000
opls_750-424    N    0.32124009    0.00000000    0.60276011    -0.12540000
opls_750-425    N    0.17875991    0.50000000    0.10276011    -0.12530000
opls_750-426    N    0.00000000    0.67875991    0.39723989    -0.12540000
opls_750-427    N    0.50000000    0.17875991    0.89723989    -0.12540000
opls_750-428    N    0.50000000    0.82124009    0.89723989    -0.12540000
opls_750-429    N    0.00000000    0.32124009    0.39723989    -0.12530000
opls_750-430    N    0.17875991    0.00000000    0.14723989    -0.12540000
opls_750-431    N    0.32124009    0.50000000    0.64723989    -0.12540000
opls_750-432    N    0.67875991    0.50000000    0.64723989    -0.12540000
opls_750-433    N    0.82124009    0.00000000    0.14723989    -0.12540000
opls_750-434    N    0.82124009    0.50000000    0.10276011    -0.12540000
opls_750-435    N    0.67875991    0.00000000    0.60276011    -0.12540000
