#======================================================================
# Crystal Data Generated By AuToFF
#----------------------------------------------------------------------

data_AuToFF_phase_1

_cell_length_a                         16.0948
_cell_length_b                         16.0948
_cell_length_c                         3.5023
_cell_angle_alpha                      90.00
_cell_angle_beta                       90.00
_cell_angle_gamma                      120.00
_symmetry_space_group_name_H-M_alt     'P 1'
_symmetry_space_group_IT_number        1

loop_
_space_group_symop_operation_xyz
   'x, y, z'

loop_
   _atom_site_label
   _atom_site_type_symbol
   _atom_site_fract_x
   _atom_site_fract_y
   _atom_site_fract_z
   _atom_site_charge
opls_145-0    C    0.46853973    0.97547945    0.69930903    0.10790000
opls_145-1    C    0.49752991    0.93069991    0.82311053    -0.17370000
opls_145-2    C    0.45541976    0.83293982    0.82615995    0.06620000
opls_145-3    C    0.38188955    0.77805949    0.70137909    -0.20590000
opls_145-4    C    0.35227002    0.82443963    0.57704937    0.06620000
opls_145-5    C    0.39557973    0.92228007    0.57987894    -0.17260000
opls_142-6    C    0.53792990    0.40346995    0.73400051    0.08630000
opls_145-7    C    0.60431017    0.36817996    0.73163064    0.03770000
opls_145-8    C    0.57009024    0.27146015    0.73179054    -0.15670000
opls_148-9    C    0.48934005    0.79013969    0.96689890    -0.43990000
opls_148-10    C    0.27643962    0.77267943    0.43756103    -0.43920000
opls_145-11    C    0.02451972    0.49305988    0.69930903    0.10790000
opls_145-12    C    0.06929968    0.56682960    0.82311053    -0.17370000
opls_145-13    C    0.16705976    0.62247973    0.82615995    0.06620000
opls_145-14    C    0.22194008    0.60382996    0.70137909    -0.20590000
opls_145-15    C    0.17555962    0.52782973    0.57704937    0.06620000
opls_145-16    C    0.07771954    0.47329951    0.57987894    -0.17260000
opls_142-17    C    0.59653007    0.13445985    0.73400051    0.08630000
opls_145-18    C    0.63181974    0.23612997    0.73163064    0.03770000
opls_145-19    C    0.72854007    0.29863020    0.73179054    -0.15670000
opls_148-20    C    0.20985961    0.69919956    0.96689890    -0.43990000
opls_148-21    C    0.22731976    0.50375973    0.43756103    -0.43920000
opls_145-22    C    0.50694019    0.53145996    0.69930903    0.10790000
opls_145-23    C    0.43317005    0.50246978    0.82311053    -0.17370000
opls_145-24    C    0.37752013    0.54457973    0.82615995    0.06620000
opls_145-25    C    0.39617001    0.61810983    0.70137909    -0.20590000
opls_145-26    C    0.47217000    0.64772992    0.57704937    0.06620000
opls_145-27    C    0.52669975    0.60441970    0.57987894    -0.17260000
opls_142-28    C    0.86554003    0.46207019    0.73400051    0.08630000
opls_145-29    C    0.76387009    0.39569007    0.73163064    0.03770000
opls_145-30    C    0.70136969    0.42990965    0.73179054    -0.15670000
opls_148-31    C    0.30079998    0.51066003    0.96689890    -0.43990000
opls_148-32    C    0.49624026    0.72356012    0.43756103    -0.43920000
opls_750-33    N    0.56578032    0.49051010    0.69673929    -0.21460000
opls_750-34    N    0.50948983    0.07526988    0.69673929    -0.21480000
opls_750-35    N    0.92472986    0.43422001    0.69673929    -0.21480000
opls_146-36    H    0.55185967    0.97224954    0.92034948    0.18370000
opls_146-37    H    0.37353976    0.95838006    0.48678012    0.18640000
opls_144-38    H    0.46471017    0.35462973    0.76080005    0.09120000
opls_140-39    H    0.52842002    0.75986960    0.89988864    0.12330000
opls_140-40    H    0.42927993    0.73478944    0.04308026    0.12350000
opls_140-41    H    0.53695962    0.84244944    0.06788111    0.12350000
opls_140-42    H    0.29006990    0.72278960    0.36157097    0.12350000
opls_140-43    H    0.27273979    0.82074985    0.33629900    0.12350000
opls_140-44    H    0.20732982    0.73423989    0.50565914    0.12330000
opls_146-45    H    0.49530986    0.22347008    0.73245867    0.18590000
opls_146-46    H    0.02775018    0.57961002    0.92034948    0.18360000
opls_146-47    H    0.04162012    0.41515987    0.48678012    0.18640000
opls_144-48    H    0.64536975    0.11007992    0.76080005    0.09120000
opls_140-49    H    0.24013024    0.76854987    0.89988864    0.12330000
opls_140-50    H    0.26520960    0.69448958    0.04308026    0.12350000
opls_140-51    H    0.15755009    0.69450967    0.06788111    0.12350000
opls_140-52    H    0.27721005    0.56728015    0.36157097    0.12350000
opls_140-53    H    0.17925019    0.45199021    0.33629900    0.12350000
opls_140-54    H    0.26576004    0.47309002    0.50565914    0.12330000
opls_146-55    H    0.77652985    0.27183967    0.73245867    0.18580000
opls_146-56    H    0.42038979    0.44813972    0.92034948    0.18360000
opls_146-57    H    0.58484012    0.62646007    0.48678012    0.18640000
opls_144-58    H    0.88991972    0.53528964    0.76080005    0.09120000
opls_140-59    H    0.23145000    0.47157982    0.89988864    0.12330000
opls_140-60    H    0.30550976    0.57071954    0.04308026    0.12350000
opls_140-61    H    0.30548994    0.46304017    0.06788111    0.12350000
opls_140-62    H    0.43271970    0.70992954    0.36157097    0.12350000
opls_140-63    H    0.54801002    0.72725994    0.33629900    0.12350000
opls_140-64    H    0.52691014    0.79267009    0.50565914    0.12330000
opls_146-65    H    0.72815993    0.50468953    0.73245867    0.18580000
MOF2_B_2-66    B    0.33332980    0.66666954    0.70145904    0.15230000
