#======================================================================
# Crystal Data Generated By AuToFF
#----------------------------------------------------------------------

data_AuToFF_phase_1

_cell_length_a                         36.6669
_cell_length_b                         36.6669
_cell_length_c                         6.3984
_cell_angle_alpha                      90.00
_cell_angle_beta                       90.00
_cell_angle_gamma                      120.00
_symmetry_space_group_name_H-M_alt     'P 1'
_symmetry_space_group_IT_number        1

loop_
_space_group_symop_operation_xyz
   'x, y, z'

loop_
   _atom_site_label
   _atom_site_type_symbol
   _atom_site_fract_x
   _atom_site_fract_y
   _atom_site_fract_z
   _atom_site_charge
opls_145-0    C    0.97645994    0.02012000    0.24972962    -0.13780000
opls_700-1    C    0.95596995    0.97626004    0.24975931    0.06960000
opls_531-2    C    0.37476005    0.69008993    0.50437922    0.37730000
opls_700-3    C    0.04889982    0.95830981    0.25065016    0.07070000
opls_145-4    C    0.08887012    0.97724005    0.15920074    -0.13360000
opls_145-5    C    0.11232990    0.95729987    0.15979932    -0.16960000
opls_145-6    C    0.09686005    0.91806004    0.25622968    0.22020000
opls_145-7    C    0.05663014    0.89867001    0.34545043    -0.15760000
opls_145-8    C    0.03315997    0.91861996    0.34211990    -0.12110000
opls_142-9    C    0.21554982    0.79047989    0.37173043    0.07260000
opls_142-10    C    0.11806004    0.87298985    0.39585990    0.07000000
opls_700-11    C    0.28374002    0.70477007    0.50346024    0.00760000
opls_523-12    C    0.24020991    0.68065000    0.53155945    -0.12760000
opls_145-13    C    0.21565994    0.69939980    0.53252063    -0.16660000
opls_145-14    C    0.23416005    0.74276000    0.49856995    0.22350000
opls_145-15    C    0.27779006    0.76713987    0.47161947    -0.16380000
opls_523-16    C    0.30220006    0.74820994    0.47544074    -0.12770000
opls_700-17    C    0.19078992    0.81156984    0.37836022    -0.05090000
opls_145-18    C    0.16145991    0.80244986    0.53815016    -0.22680000
opls_166-19    C    0.13771986    0.82240988    0.54429076    0.25650000
opls_700-20    C    0.14285993    0.85197989    0.38913947    -0.05130000
opls_145-21    C    0.17213004    0.86101988    0.22909946    -0.22710000
opls_166-22    C    0.19605980    0.84125983    0.22372937    0.21440000
opls_181-23    C    0.10337012    0.78573001    0.85805045    -0.18270000
opls_181-24    C    0.23073004    0.87825997    0.91116998    -0.18260000
opls_145-25    C    0.97987999    0.95634001    0.24972962    -0.13780000
opls_700-26    C    0.02374003    0.97970994    0.24975931    0.06960000
opls_531-27    C    0.30991007    0.68466991    0.50437922    0.37730000
opls_700-28    C    0.04169015    0.09059008    0.25065016    0.07070000
opls_145-29    C    0.02276010    0.11162995    0.15920074    -0.13360000
opls_145-30    C    0.04269986    0.15502983    0.15979932    -0.16980000
opls_145-31    C    0.08193988    0.17880002    0.25622968    0.22020000
opls_145-32    C    0.10133019    0.15796012    0.34545043    -0.15750000
opls_145-33    C    0.08138008    0.11454009    0.34211990    -0.12110000
opls_142-34    C    0.20951998    0.42506992    0.37173043    0.07260000
opls_142-35    C    0.12700991    0.24507006    0.39585990    0.07000000
opls_700-36    C    0.29522988    0.57896983    0.50346024    0.00760000
opls_523-37    C    0.31935000    0.55955996    0.53155945    -0.12760000
opls_145-38    C    0.30059987    0.51625992    0.53252063    -0.16660000
opls_145-39    C    0.25724016    0.49140011    0.49856995    0.22350000
opls_145-40    C    0.23286005    0.51065000    0.47161947    -0.16370000
opls_523-41    C    0.25179000    0.55399004    0.47544074    -0.12770000
opls_700-42    C    0.18842991    0.37922000    0.37836022    -0.05090000
opls_145-43    C    0.19754985    0.35900993    0.53815016    -0.22680000
opls_166-44    C    0.17758984    0.31530994    0.54429076    0.25650000
opls_700-45    C    0.14801998    0.29087999    0.38913947    -0.05130000
opls_145-46    C    0.13898006    0.31110990    0.22909946    -0.22720000
opls_166-47    C    0.15874002    0.35479981    0.22372937    0.21440000
opls_181-48    C    0.21427001    0.31764000    0.85805045    -0.18270000
opls_181-49    C    0.12174010    0.35247006    0.91116998    -0.18270000
opls_145-50    C    0.04366007    0.02353999    0.24972962    -0.13780000
opls_700-51    C    0.02029002    0.04403002    0.24975931    0.06960000
opls_531-52    C    0.31533000    0.62523985    0.50437922    0.37730000
opls_700-53    C    0.90940987    0.95109980    0.25065016    0.07070000
opls_145-54    C    0.88837006    0.91112999    0.15920074    -0.13360000
opls_145-55    C    0.84497008    0.88766999    0.15979932    -0.16980000
opls_145-56    C    0.82120007    0.90313994    0.25622968    0.22020000
opls_145-57    C    0.84203994    0.94336986    0.34545043    -0.15760000
opls_145-58    C    0.88545996    0.96683994    0.34211990    -0.12110000
opls_142-59    C    0.57493005    0.78444987    0.37173043    0.07260000
opls_142-60    C    0.75492989    0.88193977    0.39585990    0.07000000
opls_700-61    C    0.42102995    0.71625979    0.50346024    0.00760000
opls_523-62    C    0.44044009    0.75979004    0.53155945    -0.12760000
opls_145-63    C    0.48374004    0.78433997    0.53252063    -0.16660000
opls_145-64    C    0.50860006    0.76583990    0.49856995    0.22350000
opls_145-65    C    0.48935000    0.72220982    0.47161947    -0.16380000
opls_523-66    C    0.44600994    0.69780003    0.47544074    -0.12770000
opls_700-67    C    0.62078001    0.80920985    0.37836022    -0.05090000
opls_145-68    C    0.64099008    0.83853990    0.53815016    -0.22680000
opls_166-69    C    0.68468986    0.86227986    0.54429076    0.25650000
opls_700-70    C    0.70911993    0.85713980    0.38913947    -0.05130000
opls_145-71    C    0.68889002    0.82786990    0.22909946    -0.22720000
opls_166-72    C    0.64520002    0.80394004    0.22372937    0.21440000
opls_181-73    C    0.68235987    0.89662999    0.85805045    -0.18270000
opls_181-74    C    0.64752985    0.76926996    0.91116998    -0.18260000
opls_145-75    C    0.02354006    0.97988000    0.75027038    -0.13780000
opls_700-76    C    0.04403005    0.02373996    0.75024069    0.06960000
opls_531-77    C    0.62523995    0.30991007    0.49562078    0.37730000
opls_700-78    C    0.95110002    0.04168988    0.74934984    0.07070000
opls_145-79    C    0.91112988    0.02275995    0.84079926    -0.13360000
opls_145-80    C    0.88767010    0.04270013    0.84020068    -0.16980000
opls_145-81    C    0.90313995    0.08193996    0.74377032    0.22020000
opls_145-82    C    0.94336986    0.10132999    0.65454957    -0.15760000
opls_145-83    C    0.96684003    0.08138004    0.65788010    -0.12110000
opls_142-84    C    0.78445018    0.20952011    0.62826957    0.07260000
opls_142-85    C    0.88193980    0.12700984    0.60414010    0.07000000
opls_700-86    C    0.71625998    0.29522993    0.49653976    0.00760000
opls_523-87    C    0.75979009    0.31935000    0.46844055    -0.12760000
opls_145-88    C    0.78433991    0.30059988    0.46747937    -0.16660000
opls_145-89    C    0.76583995    0.25724000    0.50143005    0.22350000
opls_145-90    C    0.72220994    0.23286013    0.52838053    -0.16380000
opls_523-91    C    0.69779994    0.25179006    0.52455926    -0.12770000
opls_700-92    C    0.80920992    0.18842985    0.62163978    -0.05090000
opls_145-93    C    0.83853993    0.19754983    0.46184984    -0.22680000
opls_166-94    C    0.86228014    0.17759012    0.45570924    0.25650000
opls_700-95    C    0.85714007    0.14802011    0.61086053    -0.05130000
opls_145-96    C    0.82786996    0.13898012    0.77090054    -0.22720000
opls_166-97    C    0.80394004    0.15873986    0.77627063    0.21440000
opls_181-98    C    0.89662988    0.21426999    0.14194955    -0.18270000
opls_181-99    C    0.76926996    0.12174003    0.08883002    -0.18270000
opls_145-100    C    0.02012001    0.04365999    0.75027038    -0.13780000
opls_700-101    C    0.97625997    0.02029006    0.75024069    0.06960000
opls_531-102    C    0.69008993    0.31533009    0.49562078    0.37730000
opls_700-103    C    0.95830985    0.90940992    0.74934984    0.07070000
opls_145-104    C    0.97723990    0.88837005    0.84079926    -0.13360000
opls_145-105    C    0.95729998    0.84496986    0.84020068    -0.16980000
opls_145-106    C    0.91806012    0.82119998    0.74377032    0.22030000
opls_145-107    C    0.89866981    0.84203988    0.65454957    -0.15760000
opls_145-108    C    0.91861992    0.88545991    0.65788010    -0.12110000
opls_142-109    C    0.79048002    0.57493008    0.62826957    0.07260000
opls_142-110    C    0.87299009    0.75492994    0.60414010    0.07000000
opls_700-111    C    0.70476997    0.42102986    0.49653976    0.00760000
opls_523-112    C    0.68065000    0.44044004    0.46844055    -0.12760000
opls_145-113    C    0.69940013    0.48374008    0.46747937    -0.16660000
opls_145-114    C    0.74275984    0.50859989    0.50143005    0.22350000
opls_145-115    C    0.76713995    0.48935000    0.52838053    -0.16380000
opls_523-116    C    0.74821000    0.44600996    0.52455926    -0.12760000
opls_700-117    C    0.81157009    0.62078000    0.62163978    -0.05090000
opls_145-118    C    0.80245015    0.64099007    0.46184984    -0.22680000
opls_166-119    C    0.82241016    0.68469006    0.45570924    0.25660000
opls_700-120    C    0.85198002    0.70912001    0.61086053    -0.05130000
opls_145-121    C    0.86101979    0.68888978    0.77090054    -0.22720000
opls_166-122    C    0.84125982    0.64519987    0.77627063    0.21450000
opls_181-123    C    0.78572999    0.68236000    0.14194955    -0.18270000
opls_181-124    C    0.87825990    0.64752994    0.08883002    -0.18270000
opls_145-125    C    0.95633993    0.97646001    0.75027038    -0.13780000
opls_700-126    C    0.97970998    0.95596998    0.75024069    0.06960000
opls_531-127    C    0.68466984    0.37475984    0.49562078    0.37750000
opls_700-128    C    0.09058998    0.04889989    0.74934984    0.07070000
opls_145-129    C    0.11162994    0.08887001    0.84079926    -0.13360000
opls_145-130    C    0.15502992    0.11233001    0.84020068    -0.16980000
opls_145-131    C    0.17879993    0.09686006    0.74377032    0.22020000
opls_145-132    C    0.15796006    0.05663014    0.65454957    -0.15760000
opls_145-133    C    0.11454004    0.03316006    0.65788010    -0.12110000
opls_142-134    C    0.42506995    0.21555013    0.62826957    0.07260000
opls_142-135    C    0.24506995    0.11805991    0.60414010    0.07000000
opls_700-136    C    0.57896989    0.28373990    0.49653976    0.00760000
opls_523-137    C    0.55955991    0.24020996    0.46844055    -0.12760000
opls_145-138    C    0.51625996    0.21566003    0.46747937    -0.16660000
opls_145-139    C    0.49139994    0.23416010    0.50143005    0.22350000
opls_145-140    C    0.51064984    0.27778987    0.52838053    -0.16380000
opls_523-141    C    0.55399006    0.30219997    0.52455926    -0.12770000
opls_700-142    C    0.37921984    0.19078983    0.62163978    -0.05090000
opls_145-143    C    0.35900992    0.16146010    0.46184984    -0.22680000
opls_166-144    C    0.31531014    0.13772014    0.45570924    0.25650000
opls_700-145    C    0.29087991    0.14285989    0.61086053    -0.05130000
opls_145-146    C    0.31110998    0.17213010    0.77090054    -0.22710000
opls_166-147    C    0.35479998    0.19605996    0.77627063    0.21440000
opls_181-148    C    0.31764013    0.10337001    0.14194955    -0.18260000
opls_181-149    C    0.35247015    0.23073004    0.08883002    -0.18270000
opls_146-150    H    0.95795992    0.03595998    0.24982027    0.11070000
opls_146-151    H    0.10145003    0.00779985    0.08237997    0.11120000
opls_146-152    H    0.14347992    0.97239003    0.08780008    0.11130000
opls_146-153    H    0.04337012    0.86747000    0.41579926    0.11060000
opls_146-154    H    0.00205992    0.90323976    0.41506002    0.11130000
opls_144-155    H    0.23953983    0.80007980    0.24593023    0.06190000
opls_144-156    H    0.09677003    0.86599997    0.53228932    0.04760000
opls_526-157    H    0.22599001    0.64673005    0.55507939    0.11030000
opls_146-158    H    0.18165998    0.68051994    0.55477932    0.11060000
opls_146-159    H    0.29245981    0.80118988    0.45148006    0.11120000
opls_526-160    H    0.33632001    0.76698997    0.45569986    0.10990000
opls_146-161    H    0.15794993    0.77926982    0.65507939    0.10930000
opls_146-162    H    0.17538996    0.88393980    0.11127001    0.10960000
opls_185-163    H    0.13306984    0.79687994    0.94470024    0.10140000
opls_185-164    H    0.09325983    0.75426987    0.79306077    0.09960000
opls_185-165    H    0.07915994    0.78371990    0.96508033    0.11700000
opls_185-166    H    0.20124992    0.86705998    0.82249937    0.10230000
opls_185-167    H    0.25535997    0.88069995    0.80572956    0.11450000
opls_185-168    H    0.24043008    0.90953998    0.97726932    0.10210000
opls_146-169    H    0.96404005    0.92199996    0.24982027    0.11070000
opls_146-170    H    0.99220005    0.09365012    0.08237997    0.11120000
opls_146-171    H    0.02760988    0.17108993    0.08780008    0.11120000
opls_146-172    H    0.13252997    0.17589996    0.41579926    0.11060000
opls_146-173    H    0.09676011    0.09882010    0.41506002    0.11120000
opls_144-174    H    0.19992004    0.43946002    0.24593023    0.06190000
opls_144-175    H    0.13399990    0.23077003    0.53228932    0.04760000
opls_526-176    H    0.35326989    0.57925986    0.55507939    0.11030000
opls_146-177    H    0.31948003    0.50113984    0.55477932    0.11070000
opls_146-178    H    0.19880996    0.49127005    0.45148006    0.11120000
opls_526-179    H    0.23300993    0.56932992    0.45569986    0.10990000
opls_146-180    H    0.22072985    0.37867991    0.65507939    0.10930000
opls_146-181    H    0.11606009    0.29144999    0.11127001    0.10940000
opls_185-182    H    0.20311997    0.33618983    0.94470024    0.10140000
opls_185-183    H    0.24573000    0.33899007    0.79306077    0.09970000
opls_185-184    H    0.21627992    0.29543998    0.96508033    0.11700000
opls_185-185    H    0.13294000    0.33419012    0.82249937    0.10230000
opls_185-186    H    0.11929998    0.37466001    0.80572956    0.11450000
opls_185-187    H    0.09045999    0.33089011    0.97726932    0.10210000
opls_146-188    H    0.07800003    0.04204007    0.24982027    0.11070000
opls_146-189    H    0.90634992    0.89855003    0.08237997    0.11120000
opls_146-190    H    0.82890993    0.85652004    0.08780008    0.11120000
opls_146-191    H    0.82409991    0.95663004    0.41579926    0.11070000
opls_146-192    H    0.90117980    0.99793982    0.41506002    0.11120000
opls_144-193    H    0.56053997    0.76045987    0.24593023    0.06190000
opls_144-194    H    0.76923007    0.90323000    0.53228932    0.04760000
opls_526-195    H    0.42073994    0.77400977    0.55507939    0.11040000
opls_146-196    H    0.49885984    0.81833991    0.55477932    0.11060000
opls_146-197    H    0.50872996    0.70754007    0.45148006    0.11120000
opls_526-198    H    0.43066990    0.66367979    0.45569986    0.10990000
opls_146-199    H    0.62132007    0.84204995    0.65507939    0.10930000
opls_146-200    H    0.70855006    0.82460989    0.11127001    0.10940000
opls_185-201    H    0.66381004    0.86692992    0.94470024    0.10140000
opls_185-202    H    0.66101016    0.90674006    0.79306077    0.09960000
opls_185-203    H    0.70455999    0.92083981    0.96508033    0.11700000
opls_185-204    H    0.66581008    0.79874991    0.82249937    0.10230000
opls_185-205    H    0.62534005    0.74464005    0.80572956    0.11450000
opls_185-206    H    0.66910993    0.75956991    0.97726932    0.10210000
opls_146-207    H    0.04204008    0.96404002    0.75017973    0.11070000
opls_146-208    H    0.89854997    0.99220015    0.91762003    0.11120000
opls_146-209    H    0.85652008    0.02760997    0.91219992    0.11120000
opls_146-210    H    0.95662988    0.13253000    0.58420074    0.11060000
opls_146-211    H    0.99793992    0.09675992    0.58493998    0.11120000
opls_144-212    H    0.76046001    0.19991989    0.75406977    0.06190000
opls_144-213    H    0.90322997    0.13400003    0.46771068    0.04760000
opls_526-214    H    0.77400999    0.35326995    0.44492061    0.11030000
opls_146-215    H    0.81834002    0.31948006    0.44522068    0.11060000
opls_146-216    H    0.70754019    0.19881012    0.54851994    0.11120000
opls_526-217    H    0.66367999    0.23301003    0.54430014    0.10990000
opls_146-218    H    0.84204991    0.22072987    0.34492061    0.10930000
opls_146-219    H    0.82460988    0.11605988    0.88872999    0.10940000
opls_185-220    H    0.86693016    0.20312006    0.05529976    0.10140000
opls_185-221    H    0.90674017    0.24573013    0.20693923    0.09960000
opls_185-222    H    0.92084006    0.21628010    0.03491967    0.11700000
opls_185-223    H    0.79875008    0.13294002    0.17750063    0.10240000
opls_185-224    H    0.74464003    0.11930005    0.19427044    0.11450000
opls_185-225    H    0.75956992    0.09046002    0.02273068    0.10210000
opls_146-226    H    0.03595995    0.07800004    0.75017973    0.11070000
opls_146-227    H    0.00779995    0.90634988    0.91762003    0.11120000
opls_146-228    H    0.97239012    0.82891007    0.91219992    0.11120000
opls_146-229    H    0.86747003    0.82410004    0.58420074    0.11060000
opls_146-230    H    0.90323989    0.90117990    0.58493998    0.11120000
opls_144-231    H    0.80007996    0.56053998    0.75406977    0.06190000
opls_144-232    H    0.86600010    0.76922997    0.46771068    0.04760000
opls_526-233    H    0.64672995    0.42073982    0.44492061    0.11030000
opls_146-234    H    0.68051982    0.49885985    0.44522068    0.11060000
opls_146-235    H    0.80119004    0.50872995    0.54851994    0.11120000
opls_526-236    H    0.76699007    0.43067008    0.54430014    0.10990000
opls_146-237    H    0.77927015    0.62132009    0.34492061    0.10930000
opls_146-238    H    0.88393991    0.70855001    0.88872999    0.10940000
opls_185-239    H    0.79687988    0.66380985    0.05529976    0.10140000
opls_185-240    H    0.75427000    0.66100993    0.20693923    0.09960000
opls_185-241    H    0.78372008    0.70456002    0.03491967    0.11700000
opls_185-242    H    0.86706000    0.66580988    0.17750063    0.10230000
opls_185-243    H    0.88070002    0.62533999    0.19427044    0.11450000
opls_185-244    H    0.90954001    0.66910989    0.02273068    0.10210000
opls_146-245    H    0.92199997    0.95795993    0.75017973    0.11070000
opls_146-246    H    0.09365008    0.10144997    0.91762003    0.11120000
opls_146-247    H    0.17109007    0.14347996    0.91219992    0.11130000
opls_146-248    H    0.17590009    0.04336996    0.58420074    0.11070000
opls_146-249    H    0.09882004    0.00205987    0.58493998    0.11130000
opls_144-250    H    0.43946003    0.23954013    0.75406977    0.06190000
opls_144-251    H    0.23076993    0.09677000    0.46771068    0.04760000
opls_526-252    H    0.57925990    0.22598992    0.44492061    0.11030000
opls_146-253    H    0.50114016    0.18166009    0.44522068    0.11060000
opls_146-254    H    0.49127004    0.29245993    0.54851994    0.11120000
opls_526-255    H    0.56932994    0.33631989    0.54430014    0.11000000
opls_146-256    H    0.37867993    0.15795005    0.34492061    0.10930000
opls_146-257    H    0.29144994    0.17539011    0.88872999    0.10940000
opls_185-258    H    0.33618996    0.13307008    0.05529976    0.10150000
opls_185-259    H    0.33898984    0.09325994    0.20693923    0.09960000
opls_185-260    H    0.29543986    0.07915988    0.03491967    0.11700000
opls_185-261    H    0.33418992    0.20125009    0.17750063    0.10230000
opls_185-262    H    0.37465995    0.25535995    0.19427044    0.11450000
opls_185-263    H    0.33089007    0.24043009    0.02273068    0.10210000
opls_520-264    N    0.35776004    0.64789996    0.50441048    -0.40980000
opls_750-265    N    0.20846984    0.76114985    0.50565923    -0.29010000
opls_750-266    N    0.12195011    0.89900005    0.24847931    -0.28060000
opls_520-267    N    0.35209996    0.70986006    0.50441048    -0.40980000
opls_750-268    N    0.23885000    0.44732002    0.50565923    -0.29010000
opls_750-269    N    0.10099990    0.22295003    0.24847931    -0.28070000
opls_520-270    N    0.29014000    0.64223997    0.50441048    -0.40980000
opls_750-271    N    0.55268000    0.79152982    0.50565923    -0.29000000
opls_750-272    N    0.77704999    0.87804992    0.24847931    -0.28070000
opls_520-273    N    0.64223996    0.35210004    0.49558952    -0.40970000
opls_750-274    N    0.79153001    0.23884984    0.49434077    -0.29010000
opls_750-275    N    0.87804989    0.10099995    0.75152069    -0.28070000
opls_520-276    N    0.64790004    0.29013994    0.49558952    -0.40980000
opls_750-277    N    0.76115000    0.55267998    0.49434077    -0.29010000
opls_750-278    N    0.89900010    0.77704997    0.75152069    -0.28060000
opls_520-279    N    0.70986000    0.35776003    0.49558952    -0.40980000
opls_750-280    N    0.44731984    0.20846986    0.49434077    -0.29000000
opls_750-281    N    0.22295001    0.12195008    0.75152069    -0.28070000
opls_179-282    O    0.10811001    0.81478985    0.69648975    -0.16860000
opls_179-283    O    0.22577999    0.84898000    0.07193048    -0.16860000
opls_179-284    O    0.18521001    0.29331996    0.69648975    -0.16850000
opls_179-285    O    0.15101990    0.37679986    0.07193048    -0.16860000
opls_179-286    O    0.70667982    0.89188987    0.69648975    -0.16860000
opls_179-287    O    0.62319995    0.77421982    0.07193048    -0.16860000
opls_179-288    O    0.89188983    0.18520983    0.30351025    -0.16850000
opls_179-289    O    0.77422001    0.15102000    0.92806952    -0.16860000
opls_179-290    O    0.81478999    0.70668004    0.30351025    -0.16860000
opls_179-291    O    0.84897995    0.62319982    0.92806952    -0.16860000
opls_179-292    O    0.29332018    0.10811013    0.30351025    -0.16860000
opls_179-293    O    0.37679989    0.22577987    0.92806952    -0.16860000
