#======================================================================
# Crystal Data Generated By AuToFF
#----------------------------------------------------------------------

data_AuToFF_phase_1

_cell_length_a                         15.3789
_cell_length_b                         15.3821
_cell_length_c                         6.8234
_cell_angle_alpha                      89.99
_cell_angle_beta                       90.01
_cell_angle_gamma                      59.80
_symmetry_space_group_name_H-M_alt     'P 1'
_symmetry_space_group_IT_number        1

loop_
_space_group_symop_operation_xyz
   'x, y, z'

loop_
   _atom_site_label
   _atom_site_type_symbol
   _atom_site_fract_x
   _atom_site_fract_y
   _atom_site_fract_z
   _atom_site_charge
opls_700-0    C    0.34406038    0.13432992    0.99732978    -0.11150000
opls_166-1    C    0.41499025    0.16820013    0.99819005    0.22460000
opls_700-2    C    0.38401074    0.27268977    0.99798048    -0.11340000
opls_166-3    C    0.27881039    0.34392976    0.99702055    0.22150000
opls_700-4    C    0.20531048    0.31320972    0.99673037    -0.10050000
opls_166-5    C    0.23944008    0.20817021    0.99700003    0.22450000
opls_142-6    C    0.46341031    0.29878967    0.99900050    0.02200000
opls_142-7    C    0.37033027    0.02863967    0.99832928    0.02200000
opls_142-8    C    0.09942072    0.39265969    0.99867954    0.02200000
opls_234-9    C    0.49190981    0.51276025    0.00138054    0.46060000
opls_700-10    C    0.57319981    0.53978005    0.00285049    -0.03310000
opls_145-11    C    0.54117006    0.64317000    0.00227013    -0.12290000
opls_145-12    C    0.67682986    0.46959984    0.00438931    -0.12290000
opls_700-13    C    0.61103017    0.67657005    0.00336049    -0.03270000
opls_700-14    C    0.74821986    0.50136010    0.00534045    -0.03290000
opls_145-15    C    0.71447975    0.60485008    0.00499018    -0.14560000
opls_234-16    C    0.85701015    0.42030035    0.00395990    0.45620000
opls_234-17    C    0.58415034    0.78496003    0.00189935    0.45790000
opls_700-18    C    0.60208035    0.68750001    0.50303954    -0.10050000
opls_166-19    C    0.53319055    0.65112962    0.50094967    0.22450000
opls_700-20    C    0.56668002    0.54605989    0.50240936    -0.09800000
opls_166-21    C    0.67233033    0.47687010    0.50593985    0.22460000
opls_700-22    C    0.74386999    0.51010993    0.50700970    -0.14620000
opls_166-23    C    0.70726045    0.61560013    0.50569950    0.22020000
opls_142-24    C    0.48915011    0.51745984    0.49984026    0.02200000
opls_142-25    C    0.57331997    0.79383029    0.50289005    0.02200000
opls_142-26    C    0.85039002    0.43255023    0.51157048    0.02200000
opls_234-27    C    0.46059015    0.30343026    0.50019931    0.46060000
opls_700-28    C    0.37745041    0.27891984    0.49855058    -0.03280000
opls_145-29    C    0.40684021    0.17617983    0.49878946    -0.12290000
opls_145-30    C    0.27435020    0.35110991    0.49719055    -0.12290000
opls_700-31    C    0.33498018    0.14532004    0.49717003    -0.03310000
opls_700-32    C    0.20099010    0.32197034    0.49623941    -0.03290000
opls_145-33    C    0.23218018    0.21903033    0.49572940    -0.14560000
opls_234-34    C    0.09283037    0.40476001    0.49261952    0.45620000
opls_234-35    C    0.35939002    0.03759982    0.49622036    0.45790000
opls_144-36    H    0.54275047    0.23543965    0.99924964    0.04880000
opls_144-37    H    0.30711042    0.01288990    0.99912067    0.04870000
opls_144-38    H    0.08322050    0.47188017    0.00115045    0.04880000
opls_146-39    H    0.45928999    0.69595996    0.00082071    0.08800000
opls_146-40    H    0.70577042    0.38786972    0.00434974    0.07620000
opls_146-41    H    0.76714981    0.63370010    0.00552950    0.09300000
opls_910-42    H    0.59219994    0.35293999    0.00070053    0.27560000
opls_910-43    H    0.91544015    0.52100001    0.00680013    0.25570000
opls_910-44    H    0.42443005    0.84552989    0.00168977    0.25570000
opls_168-45    H    0.29402025    0.46354011    0.99785005    0.34840000
opls_168-46    H    0.53487054    0.03283002    0.99985931    0.34840000
opls_168-47    H    0.10442010    0.22335987    0.00015974    0.36560000
opls_144-48    H    0.40931043    0.57970975    0.49655011    0.04880000
opls_144-49    H    0.63541053    0.81119981    0.50632969    0.04870000
opls_144-50    H    0.86822981    0.35305029    0.52496996    0.04870000
opls_146-51    H    0.48834995    0.12178019    0.49993991    0.08800000
opls_146-52    H    0.24744001    0.43243995    0.49652959    0.10910000
opls_146-53    H    0.17787032    0.19221001    0.49307970    0.10450000
opls_910-54    H    0.36192992    0.46310004    0.49491016    0.27560000
opls_910-55    H    0.03320052    0.30620975    0.52459038    0.27590000
opls_910-56    H    0.51894033    0.97565028    0.50382068    0.27700000
opls_168-57    H    0.66015047    0.35560995    0.50687927    0.34850000
opls_168-58    H    0.41172026    0.78514003    0.49685054    0.34840000
opls_168-59    H    0.84089020    0.60335974    0.50991002    0.36560000
opls_750-60    N    0.44218076    0.39193971    0.99962042    -0.09230000
opls_750-61    N    0.46349072    0.95623006    0.99882024    -0.10410000
opls_238-62    N    0.51847983    0.41231985    0.00061993    -0.23790000
opls_238-63    N    0.48377008    0.85946991    0.00046018    -0.23240000
opls_750-64    N    0.02764037    0.37139027    0.99912067    -0.09140000
opls_238-65    N    0.93044039    0.44730991    0.00292962    -0.23240000
opls_750-66    N    0.51173999    0.42384998    0.50102002    -0.10680000
opls_750-67    N    0.47970014    0.86533011    0.49923938    -0.10680000
opls_238-68    N    0.43545042    0.40341965    0.49837031    -0.23450000
opls_238-69    N    0.45933036    0.96215018    0.49978017    -0.23860000
opls_750-70    N    0.92121029    0.45505001    0.50064044    -0.10340000
opls_238-71    N    0.01852011    0.37933001    0.50677961    -0.23860000
opls_236-72    O    0.40210004    0.57887992    0.00089984    -0.44450000
opls_236-73    O    0.88154019    0.33044969    0.00161063    -0.44620000
opls_236-74    O    0.65034014    0.80811973    0.00150072    -0.44790000
opls_167-75    O    0.24121998    0.44495031    0.99607967    -0.41680000
opls_167-76    O    0.51603055    0.10438965    0.99933025    -0.41210000
opls_167-77    O    0.17612069    0.17077961    0.99680951    -0.41450000
opls_236-78    O    0.54986013    0.23607965    0.50341032    -0.43870000
opls_236-79    O    0.06993039    0.49379975    0.47647067    -0.43900000
opls_236-80    O    0.29204057    0.01614965    0.49221942    -0.44030000
opls_167-81    O    0.71196993    0.37554027    0.50785972    -0.41680000
opls_167-82    O    0.43186024    0.71322987    0.49743969    -0.41210000
opls_167-83    O    0.76886041    0.65501018    0.50788024    -0.41450000
