#======================================================================
# Crystal Data Generated By AuToFF
#----------------------------------------------------------------------

data_AuToFF_phase_1

_cell_length_a                         18.5500
_cell_length_b                         18.5500
_cell_length_c                         3.7000
_cell_angle_alpha                      90.00
_cell_angle_beta                       90.00
_cell_angle_gamma                      120.00
_symmetry_space_group_name_H-M_alt     'P 1'
_symmetry_space_group_IT_number        1

loop_
_space_group_symop_operation_xyz
   'x, y, z'

loop_
   _atom_site_label
   _atom_site_type_symbol
   _atom_site_fract_x
   _atom_site_fract_y
   _atom_site_fract_z
   _atom_site_charge
opls_166-0    C    0.61300993    0.24616972    0.50000000    0.21040000
opls_700-1    C    0.69924986    0.27961994    0.50000000    -0.05650000
opls_142-2    C    0.49176973    0.27268987    0.50000000    0.10840000
opls_145-3    C    0.35198037    0.15972031    0.50000000    0.20560000
opls_145-4    C    0.30635006    0.07397990    0.50000000    -0.20970000
opls_145-5    C    0.22103980    0.03443000    0.50000000    -0.14140000
opls_700-6    C    0.17940967    0.08094981    0.50000000    0.06560000
opls_145-7    C    0.22816009    0.16861991    0.50000000    -0.17970000
opls_145-8    C    0.31299994    0.20734004    0.50000000    -0.20970000
opls_700-9    C    0.08725976    0.03941980    0.50000000    0.06490000
opls_145-10    C    0.04673982    0.08543975    0.50000000    -0.13430000
opls_145-11    C    0.75383024    0.36683999    0.50000000    -0.18760000
opls_700-12    C    0.72037998    0.41963004    0.50000000    0.05330000
opls_142-13    C    0.72730982    0.21908001    0.50000000    0.10840000
opls_145-14    C    0.84027978    0.19225983    0.50000000    0.20560000
opls_145-15    C    0.92602002    0.23236996    0.50000000    -0.20970000
opls_145-16    C    0.96557033    0.18661020    0.50000000    -0.14140000
opls_700-17    C    0.91905003    0.09846017    0.50000000    0.06560000
opls_145-18    C    0.83138035    0.05954022    0.50000000    -0.17970000
opls_145-19    C    0.79266008    0.10565978    0.50000000    -0.20970000
opls_700-20    C    0.96057988    0.04784009    0.50000000    0.06490000
opls_145-21    C    0.91455987    0.96129979    0.50000000    -0.13430000
opls_145-22    C    0.63316037    0.38699029    0.50000000    -0.18760000
opls_700-23    C    0.58037016    0.30075003    0.50000000    -0.05650000
opls_142-24    C    0.78091991    0.50823012    0.50000000    0.10840000
opls_145-25    C    0.80773985    0.64801986    0.50000000    0.20560000
opls_145-26    C    0.76762992    0.69365014    0.50000000    -0.20970000
opls_145-27    C    0.81338987    0.77895980    0.50000000    -0.14140000
opls_700-28    C    0.90153976    0.82059002    0.50000000    0.06560000
opls_145-29    C    0.94046010    0.77183987    0.50000000    -0.17970000
opls_145-30    C    0.89433999    0.68700019    0.50000000    -0.20970000
opls_700-31    C    0.95215981    0.91274011    0.50000000    0.06490000
opls_145-32    C    0.03870000    0.95325984    0.50000000    -0.13430000
opls_750-33    N    0.43853986    0.19543012    0.50000000    -0.26680000
opls_750-34    N    0.80457021    0.24311023    0.50000000    -0.26690000
opls_750-35    N    0.75689024    0.56146026    0.50000000    -0.26680000
opls_144-36    H    0.47117014    0.31733974    0.50000000    0.09840000
opls_146-37    H    0.33736996    0.03760029    0.50000000    0.10860000
opls_146-38    H    0.19146967    0.96779973    0.50000000    0.10090000
opls_146-39    H    0.20478000    0.21105002    0.50000000    0.10090000
opls_146-40    H    0.34590988    0.27439982    0.50000000    0.10990000
opls_146-41    H    0.08199017    0.15057981    0.50000000    0.23160000
opls_168-42    H    0.50283035    0.12455018    0.50000000    0.33450000
opls_144-43    H    0.68265990    0.15382978    0.50000000    0.09840000
opls_146-44    H    0.96239995    0.29977024    0.50000000    0.10860000
opls_146-45    H    0.03220005    0.22367018    0.50000000    0.10090000
opls_146-46    H    0.78895005    0.99372976    0.50000000    0.10090000
opls_146-47    H    0.72559969    0.07150989    0.50000000    0.10990000
opls_146-48    H    0.84941990    0.93141016    0.50000000    0.23160000
opls_144-49    H    0.84617018    0.52882986    0.50000000    0.09840000
opls_146-50    H    0.70022987    0.66263009    0.50000000    0.10860000
opls_146-51    H    0.77633028    0.80853009    0.50000000    0.10090000
opls_146-52    H    0.00626995    0.79522022    0.50000000    0.10090000
opls_146-53    H    0.92848989    0.65409029    0.50000000    0.10990000
opls_146-54    H    0.06858992    0.91801003    0.50000000    0.23160000
opls_146-55    H    0.82074981    0.39279990    0.50000000    0.10890000
opls_146-56    H    0.60719985    0.42795010    0.50000000    0.10890000
opls_167-57    O    0.56486029    0.15835023    0.50000000    -0.48730000
