#======================================================================
# Crystal Data Generated By AuToFF
#----------------------------------------------------------------------

data_AuToFF_phase_1

_cell_length_a                         16.2900
_cell_length_b                         16.2900
_cell_length_c                         7.8000
_cell_angle_alpha                      90.00
_cell_angle_beta                       90.00
_cell_angle_gamma                      120.00
_symmetry_space_group_name_H-M_alt     'P 1'
_symmetry_space_group_IT_number        1

loop_
_space_group_symop_operation_xyz
   'x, y, z'

loop_
   _atom_site_label
   _atom_site_type_symbol
   _atom_site_fract_x
   _atom_site_fract_y
   _atom_site_fract_z
   _atom_site_charge
opls_526-0    H    0.35506012    0.33915031    0.10952949    0.12450000
opls_526-1    H    0.58673998    0.54145050    0.41287051    0.11510000
opls_525-2    H    0.51473990    0.64393038    0.41892949    0.09990000
opls_525-3    H    0.26345023    0.67623010    0.45262051    0.25250000
opls_526-4    H    0.09067980    0.60492006    0.48678974    0.13160000
opls_526-5    H    0.04775986    0.37454980    0.16448974    0.11830000
opls_526-6    H    0.39160001    0.91662053    0.15816026    0.11730000
opls_525-7    H    0.29739013    0.75001046    0.20266026    0.12390000
opls_525-8    H    0.55091983    0.72457018    0.17000000    0.12390000
opls_526-9    H    0.64493973    0.89502004    0.12842949    0.10980000
opls_910-10    H    0.47192988    0.30170015    0.21230000    0.27820000
opls_144-11    H    0.48496988    0.06834000    0.20302949    0.10370000
opls_144-12    H    0.91102007    0.29467980    0.32516026    0.08170000
opls_144-13    H    0.66819028    0.48122034    0.24875000    0.08770000
opls_910-14    H    0.93087039    0.48839026    0.40043974    0.27580000
opls_910-15    H    0.65395971    0.04788996    0.08185000    0.27580000
opls_526-16    H    0.35506012    0.33915031    0.60952949    0.12450000
opls_526-17    H    0.58673998    0.54145050    0.91287051    0.11510000
opls_525-18    H    0.51473990    0.64393038    0.91892949    0.09990000
opls_525-19    H    0.26345023    0.67623010    0.95262051    0.25250000
opls_526-20    H    0.09067980    0.60492006    0.98678974    0.13160000
opls_526-21    H    0.04775986    0.37454980    0.66448974    0.11830000
opls_526-22    H    0.39160001    0.91662053    0.65816026    0.11730000
opls_525-23    H    0.29739013    0.75001046    0.70266026    0.12390000
opls_525-24    H    0.55091983    0.72457018    0.67000000    0.12390000
opls_526-25    H    0.64493973    0.89502004    0.62842949    0.10980000
opls_910-26    H    0.47192988    0.30170015    0.71230000    0.27820000
opls_144-27    H    0.48496988    0.06834000    0.70302949    0.10370000
opls_144-28    H    0.91102007    0.29467980    0.82516026    0.08170000
opls_144-29    H    0.66819028    0.48122034    0.74875000    0.08770000
opls_910-30    H    0.93087039    0.48839026    0.90043974    0.27580000
opls_910-31    H    0.65395971    0.04788996    0.58185000    0.27580000
opls_521-32    C    0.25569005    0.57117997    0.28005000    0.11120000
opls_522-33    C    0.19289976    0.48212978    0.20627051    -0.03480000
opls_522-34    C    0.35037025    0.46490992    0.17667051    -0.03510000
opls_521-35    C    0.39789031    0.55503046    0.25531026    0.10530000
opls_523-36    C    0.39153019    0.40692041    0.17376026    -0.19150000
opls_916-37    C    0.47838981    0.43496993    0.25302051    0.19230000
opls_523-38    C    0.52243030    0.52096005    0.34221026    -0.16680000
opls_522-39    C    0.48140988    0.57941032    0.34582051    -0.16720000
opls_522-40    C    0.21700031    0.61167035    0.38688974    -0.19010000
opls_523-41    C    0.11858029    0.57076034    0.40670000    -0.15840000
opls_916-42    C    0.05634044    0.48485031    0.32788974    0.20200000
opls_523-43    C    0.09423014    0.44060025    0.22820000    -0.18790000
opls_523-44    C    0.42786010    0.87614008    0.16813974    -0.17800000
opls_522-45    C    0.37314053    0.77817055    0.19657949    -0.17730000
opls_521-46    C    0.41500988    0.71971037    0.21087051    0.19160000
opls_522-47    C    0.51397028    0.76416033    0.17666026    -0.17190000
opls_523-48    C    0.56882983    0.86267991    0.14850000    -0.18370000
opls_916-49    C    0.52679015    0.91994003    0.14973974    0.18310000
opls_145-50    C    0.65236022    0.34500037    0.27757949    -0.11330000
opls_280-51    C    0.59035962    0.24130980    0.30642051    0.36150000
opls_145-52    C    0.62363977    0.17573994    0.25415000    -0.13800000
opls_280-53    C    0.72714024    0.21139035    0.26995000    0.31700000
opls_145-54    C    0.79456050    0.31543039    0.28325000    -0.11750000
opls_280-55    C    0.75587987    0.38084997    0.25758974    0.16650000
opls_142-56    C    0.55951014    0.08780972    0.20007949    0.05430000
opls_142-57    C    0.88736037    0.34667040    0.31566026    0.04640000
opls_142-58    C    0.61791002    0.40541979    0.26283974    0.04640000
opls_521-59    C    0.25569005    0.57117997    0.78003974    0.11120000
opls_522-60    C    0.19289976    0.48212978    0.70627051    -0.03480000
opls_522-61    C    0.35037025    0.46490992    0.67667051    -0.03510000
opls_521-62    C    0.39789031    0.55503046    0.75531026    0.10530000
opls_523-63    C    0.39153019    0.40692041    0.67375000    -0.19150000
opls_916-64    C    0.47838981    0.43496993    0.75302051    0.19230000
opls_523-65    C    0.52243030    0.52096005    0.84221026    -0.16670000
opls_522-66    C    0.48140988    0.57941032    0.84582051    -0.16720000
opls_522-67    C    0.21700031    0.61167035    0.88688974    -0.19010000
opls_523-68    C    0.11858029    0.57076034    0.90670000    -0.15840000
opls_916-69    C    0.05634044    0.48485031    0.82788974    0.20200000
opls_523-70    C    0.09423014    0.44060025    0.72820000    -0.18790000
opls_523-71    C    0.42786010    0.87614008    0.66813974    -0.17800000
opls_522-72    C    0.37314053    0.77817055    0.69657949    -0.17730000
opls_521-73    C    0.41500988    0.71971037    0.71087051    0.19160000
opls_522-74    C    0.51397028    0.76416033    0.67666026    -0.17190000
opls_523-75    C    0.56882983    0.86267991    0.64850000    -0.18370000
opls_916-76    C    0.52679015    0.91994003    0.64973974    0.18310000
opls_145-77    C    0.65236022    0.34500037    0.77757949    -0.11330000
opls_280-78    C    0.59035962    0.24130980    0.80642051    0.36150000
opls_145-79    C    0.62363977    0.17573994    0.75415000    -0.13800000
opls_280-80    C    0.72714024    0.21139035    0.76995000    0.31700000
opls_145-81    C    0.79456050    0.31543039    0.78325000    -0.11740000
opls_280-82    C    0.75587987    0.38084997    0.75758974    0.16650000
opls_142-83    C    0.55951014    0.08780972    0.70007949    0.05430000
opls_142-84    C    0.88736037    0.34667040    0.81566026    0.04640000
opls_142-85    C    0.61791002    0.40541979    0.76283974    0.04640000
opls_239-86    N    0.35777013    0.61754025    0.25185000    -0.15260000
opls_238-87    N    0.51750001    0.37259978    0.24853974    -0.33250000
opls_238-88    N    0.95543007    0.44506027    0.34868974    -0.33220000
opls_238-89    N    0.58564985    0.02155016    0.13250000    -0.33220000
opls_239-90    N    0.35777013    0.61754025    0.75185000    -0.15260000
opls_238-91    N    0.51750001    0.37259978    0.74853974    -0.33250000
opls_238-92    N    0.95543007    0.44506027    0.84868974    -0.33220000
opls_238-93    N    0.58564985    0.02155016    0.63250000    -0.33220000
opls_281-94    O    0.80798985    0.46258989    0.21002051    -0.37870000
opls_281-95    O    0.75681006    0.15555997    0.28242051    -0.36580000
opls_281-96    O    0.51431999    0.20994999    0.37937051    -0.38110000
opls_281-97    O    0.80798985    0.46258989    0.71002051    -0.37870000
opls_281-98    O    0.75681006    0.15555997    0.78242051    -0.36580000
opls_281-99    O    0.51431999    0.20994999    0.87937051    -0.38110000
opls_202-100    S    0.23449015    0.41748000    0.08037949    0.08920000
opls_202-101    S    0.23449015    0.41748000    0.58037051    0.08920000
