#======================================================================
# Crystal Data Generated By AuToFF
#----------------------------------------------------------------------

data_AuToFF_phase_1

_cell_length_a                         37.6880
_cell_length_b                         37.6880
_cell_length_c                         3.6847
_cell_angle_alpha                      90.00
_cell_angle_beta                       90.00
_cell_angle_gamma                      120.00
_symmetry_space_group_name_H-M_alt     'P 1'
_symmetry_space_group_IT_number        1

loop_
_space_group_symop_operation_xyz
   'x, y, z'

loop_
   _atom_site_label
   _atom_site_type_symbol
   _atom_site_fract_x
   _atom_site_fract_y
   _atom_site_fract_z
   _atom_site_charge
opls_700-0    C    0.29004985    0.64286981    0.78590116    0.09050000
opls_145-1    C    0.31409993    0.62395979    0.78557006    -0.05670000
opls_700-2    C    0.24439008    0.61765992    0.79246886    0.08350000
opls_145-3    C    0.36790004    0.58752000    0.64384075    -0.06770000
opls_145-4    C    0.39168014    0.56859005    0.65605884    -0.12160000
opls_145-5    C    0.43097990    0.58827002    0.81412055    0.24540000
opls_145-6    C    0.44683000    0.62762996    0.95716883    -0.09830000
opls_145-7    C    0.42388990    0.64727991    0.95595028    -0.07360000
opls_142-8    C    0.44275998    0.53050988    0.81337965    0.01760000
opls_700-9    C    0.47141989    0.51444984    0.81727956    -0.02810000
opls_166-10    C    0.45617989    0.47198991    0.80975113    0.26670000
opls_145-11    C    0.48368979    0.45708984    0.81707059    -0.14920000
opls_182-12    C    0.37203007    0.37210992    0.84039135    -0.01590000
opls_166-13    C    0.34822988    0.30319984    0.67511873    0.23570000
opls_523-14    C    0.31207011    0.26623001    0.74115939    -0.16350000
opls_145-15    C    0.31283016    0.22986007    0.79059082    -0.07170000
opls_523-16    C    0.34979988    0.22986988    0.76928108    -0.08320000
opls_700-17    C    0.38605983    0.26623981    0.69596982    0.01680000
opls_521-18    C    0.38557997    0.30319984    0.64619101    0.06830000
opls_521-19    C    0.45725002    0.33857985    0.53173935    0.03660000
opls_522-20    C    0.45884009    0.30267011    0.58243005    -0.10190000
opls_523-21    C    0.42297006    0.26632008    0.66459956    -0.09890000
opls_182-22    C    0.61975994    0.58777981    0.65666947    -0.01590000
opls_700-23    C    0.35713013    0.64718003    0.78590116    0.09050000
opls_145-24    C    0.37604006    0.69013998    0.78557006    -0.05670000
opls_700-25    C    0.38233991    0.62672981    0.79246886    0.08350000
opls_145-26    C    0.41248007    0.78037990    0.64384075    -0.06770000
opls_145-27    C    0.43140986    0.82308984    0.65605884    -0.12160000
opls_145-28    C    0.41172980    0.84270976    0.81412055    0.24530000
opls_145-29    C    0.37237011    0.81919999    0.95716883    -0.09830000
opls_145-30    C    0.35271985    0.77660984    0.95595028    -0.07360000
opls_142-31    C    0.46948988    0.91224976    0.81337965    0.01760000
opls_700-32    C    0.48555006    0.95696989    0.81727956    -0.02810000
opls_166-33    C    0.52800986    0.98418997    0.80975113    0.26670000
opls_182-34    C    0.62788997    0.99991973    0.84039135    -0.01590000
opls_700-35    C    0.35281986    0.70994985    0.78590116    0.09050000
opls_145-36    C    0.30985986    0.68589993    0.78557006    -0.05670000
opls_700-37    C    0.37326985    0.75560997    0.79246886    0.08350000
opls_145-38    C    0.21962000    0.63209980    0.64384075    -0.06770000
opls_145-39    C    0.17690985    0.60831980    0.65605884    -0.12160000
opls_145-40    C    0.15728989    0.56901991    0.81412055    0.24530000
opls_145-41    C    0.18079989    0.55317005    0.95716883    -0.09830000
opls_145-42    C    0.22339009    0.57610995    0.95595028    -0.07360000
opls_142-43    C    0.08774999    0.55724006    0.81337965    0.01760000
opls_700-44    C    0.04302990    0.52857997    0.81727956    -0.02810000
opls_166-45    C    0.01580982    0.54381982    0.80975113    0.26670000
opls_182-46    C    0.00008007    0.62797005    0.84039135    -0.01590000
opls_700-47    C    0.70995000    0.35712988    0.78590116    0.09050000
opls_145-48    C    0.68589991    0.37603991    0.78557006    -0.05670000
opls_700-49    C    0.75560992    0.38234008    0.79246886    0.08350000
opls_145-50    C    0.63209996    0.41248000    0.64384075    -0.06770000
opls_145-51    C    0.60831986    0.43140995    0.65605884    -0.12160000
opls_145-52    C    0.56902010    0.41172998    0.81412055    0.24530000
opls_145-53    C    0.55317000    0.37237004    0.95716883    -0.09830000
opls_145-54    C    0.57611010    0.35272009    0.95595028    -0.07360000
opls_142-55    C    0.55723986    0.46948981    0.81337965    0.01760000
opls_700-56    C    0.52857996    0.48554985    0.81727956    -0.02810000
opls_166-57    C    0.54381995    0.52800979    0.80975113    0.26670000
opls_145-58    C    0.51631006    0.54290986    0.81707059    -0.14920000
opls_182-59    C    0.62796978    0.62788978    0.84039135    -0.01590000
opls_166-60    C    0.65176996    0.69679985    0.67511873    0.23570000
opls_523-61    C    0.68792989    0.73376999    0.74115939    -0.16360000
opls_145-62    C    0.68716984    0.77013993    0.79059082    -0.07170000
opls_523-63    C    0.65019997    0.77012982    0.76928108    -0.08310000
opls_700-64    C    0.61394001    0.73375988    0.69596982    0.01680000
opls_521-65    C    0.61441988    0.69679985    0.64619101    0.06830000
opls_521-66    C    0.54274983    0.66141984    0.53173935    0.03650000
opls_522-67    C    0.54115991    0.69732989    0.58243005    -0.10190000
opls_523-68    C    0.57702994    0.73367992    0.66459956    -0.09890000
opls_182-69    C    0.38023990    0.41221988    0.65666947    -0.01590000
opls_700-70    C    0.64286987    0.35281997    0.78590116    0.09050000
opls_145-71    C    0.62395994    0.30986002    0.78557006    -0.05670000
opls_700-72    C    0.61765994    0.37326989    0.79246886    0.08350000
opls_145-73    C    0.58751993    0.21962010    0.64384075    -0.06770000
opls_145-74    C    0.56858998    0.17690985    0.65605884    -0.12160000
opls_145-75    C    0.58827005    0.15728993    0.81412055    0.24530000
opls_145-76    C    0.62762989    0.18080001    0.95716883    -0.09830000
opls_145-77    C    0.64727999    0.22338985    0.95595028    -0.07360000
opls_142-78    C    0.53050997    0.08774994    0.81337965    0.01760000
opls_700-79    C    0.51444994    0.04303011    0.81727956    -0.02810000
opls_166-80    C    0.47199014    0.01581003    0.80975113    0.26670000
opls_182-81    C    0.37210987    0.00007997    0.84039135    -0.01590000
opls_700-82    C    0.64717998    0.29004984    0.78590116    0.09050000
opls_145-83    C    0.69014014    0.31410007    0.78557006    -0.05670000
opls_700-84    C    0.62673015    0.24439003    0.79246886    0.08350000
opls_145-85    C    0.78037984    0.36789989    0.64384075    -0.06770000
opls_145-86    C    0.82309000    0.39167989    0.65605884    -0.12160000
opls_145-87    C    0.84271011    0.43098009    0.81412055    0.24530000
opls_145-88    C    0.81920011    0.44682995    0.95716883    -0.09830000
opls_145-89    C    0.77660991    0.42389005    0.95595028    -0.07360000
opls_142-90    C    0.91225001    0.44275994    0.81337965    0.01770000
opls_700-91    C    0.95697010    0.47142003    0.81727956    -0.02810000
opls_166-92    C    0.98419002    0.45617987    0.80975113    0.26670000
opls_182-93    C    0.99991993    0.37202995    0.84039135    -0.01590000
opls_145-94    C    0.54290994    0.02659996    0.81707059    -0.14920000
opls_166-95    C    0.69679986    0.04502988    0.67511873    0.23570000
opls_523-96    C    0.73376985    0.04583996    0.74115939    -0.16360000
opls_145-97    C    0.77014003    0.08297004    0.79059082    -0.07160000
opls_523-98    C    0.77013007    0.11993007    0.76928108    -0.08310000
opls_700-99    C    0.73376007    0.11982008    0.69596982    0.01680000
opls_521-100    C    0.69679998    0.08237994    0.64619101    0.06830000
opls_521-101    C    0.66141997    0.11866991    0.53173935    0.03650000
opls_522-102    C    0.69733017    0.15617010    0.58243005    -0.10180000
opls_523-103    C    0.73367997    0.15664990    0.66459956    -0.09890000
opls_182-104    C    0.41222013    0.03198007    0.65666947    -0.01590000
opls_145-105    C    0.97339985    0.51630990    0.81707059    -0.14920000
opls_166-106    C    0.95497010    0.65176997    0.67511873    0.23570000
opls_523-107    C    0.95416004    0.68793003    0.74115939    -0.16350000
opls_145-108    C    0.91703007    0.68716989    0.79059082    -0.07170000
opls_523-109    C    0.88007004    0.65020005    0.76928108    -0.08310000
opls_700-110    C    0.88017994    0.61393980    0.69596982    0.01680000
opls_521-111    C    0.91761990    0.61441991    0.64619101    0.06830000
opls_521-112    C    0.88132986    0.54274993    0.53173935    0.03650000
opls_522-113    C    0.84383000    0.54115979    0.58243005    -0.10190000
opls_523-114    C    0.84334997    0.57703002    0.66459956    -0.09890000
opls_182-115    C    0.96802004    0.38023982    0.65666947    -0.01590000
opls_145-116    C    0.45708991    0.97339973    0.81707059    -0.14920000
opls_166-117    C    0.30319999    0.95496981    0.67511873    0.23570000
opls_523-118    C    0.26622999    0.95415973    0.74115939    -0.16360000
opls_145-119    C    0.22985997    0.91702996    0.79059082    -0.07170000
opls_523-120    C    0.22986993    0.88006993    0.76928108    -0.08310000
opls_700-121    C    0.26623993    0.88017992    0.69596982    0.01680000
opls_521-122    C    0.30319987    0.91761975    0.64619101    0.06830000
opls_521-123    C    0.33857988    0.88132978    0.53173935    0.03650000
opls_522-124    C    0.30266983    0.84382990    0.58243005    -0.10180000
opls_523-125    C    0.26631988    0.84334980    0.66459956    -0.09890000
opls_182-126    C    0.58777987    0.96801993    0.65666947    -0.01590000
opls_145-127    C    0.02659999    0.48368980    0.81707059    -0.14920000
opls_166-128    C    0.04502990    0.34823003    0.67511873    0.23590000
opls_523-129    C    0.04583996    0.31206997    0.74115939    -0.16360000
opls_145-130    C    0.08296977    0.31282980    0.79059082    -0.07170000
opls_523-131    C    0.11992996    0.34979995    0.76928108    -0.08310000
opls_700-132    C    0.11981991    0.38605989    0.69596982    0.01680000
opls_521-133    C    0.08238010    0.38558009    0.64619101    0.06840000
opls_521-134    C    0.11867014    0.45725007    0.53173935    0.03650000
opls_522-135    C    0.15616984    0.45883990    0.58243005    -0.10190000
opls_523-136    C    0.15665003    0.42296998    0.66459956    -0.09890000
opls_182-137    C    0.03197981    0.61975987    0.65666947    -0.01590000
opls_750-138    N    0.45620003    0.56964003    0.82533992    -0.25630000
opls_520-139    N    0.42108010    0.33808995    0.56331045    -0.21800000
opls_750-140    N    0.43035985    0.88655976    0.82533992    -0.25620000
opls_750-141    N    0.11343996    0.54379990    0.82533992    -0.25630000
opls_750-142    N    0.54379997    0.43035997    0.82533992    -0.25630000
opls_520-143    N    0.57891990    0.66191005    0.56331045    -0.21570000
opls_750-144    N    0.56964000    0.11343994    0.82533992    -0.25620000
opls_750-145    N    0.88655988    0.45619979    0.82533992    -0.25630000
opls_520-146    N    0.66190996    0.08298995    0.56331045    -0.21570000
opls_520-147    N    0.91700978    0.57891979    0.56331045    -0.21570000
opls_520-148    N    0.33808988    0.91700974    0.56331045    -0.21570000
opls_520-149    N    0.08299007    0.42107990    0.56331045    -0.21570000
opls_179-150    O    0.41351985    0.44551985    0.81064130    -0.13070000
opls_179-151    O    0.34532011    0.33838009    0.61806931    -0.15240000
opls_179-152    O    0.55447985    0.96799971    0.81064130    -0.13070000
opls_179-153    O    0.03199999    0.58647982    0.81064130    -0.13070000
opls_179-154    O    0.58648000    0.55447984    0.81064130    -0.13070000
opls_179-155    O    0.65467989    0.66161991    0.61806931    -0.15250000
opls_179-156    O    0.44552000    0.03199998    0.81064130    -0.13070000
opls_179-157    O    0.96799985    0.41351987    0.81064130    -0.13070000
opls_179-158    O    0.66162003    0.00693991    0.61806931    -0.15250000
opls_179-159    O    0.99306012    0.65468000    0.61806931    -0.15250000
opls_179-160    O    0.33837982    0.99305979    0.61806931    -0.15250000
opls_179-161    O    0.00693988    0.34532000    0.61806931    -0.15240000
opls_146-162    H    0.29875998    0.58911993    0.78501913    0.05320000
opls_146-163    H    0.33632001    0.57114989    0.51196027    0.05310000
opls_146-164    H    0.37935004    0.53664001    0.53674926    0.05310000
opls_146-165    H    0.47901004    0.64414989    0.07727088    0.05310000
opls_146-166    H    0.43702004    0.67910004    0.08038104    0.05310000
opls_144-167    H    0.40842002    0.50797993    0.79964990    0.03150000
opls_146-168    H    0.47159000    0.42267003    0.82295981    0.05310000
opls_185-169    H    0.40219979    0.37237984    0.87739029    0.04840000
opls_185-170    H    0.35716002    0.36916986    0.11648981    0.04840000
opls_526-171    H    0.28174985    0.26602994    0.75440877    0.05320000
opls_617-172    H    0.28319014    0.20007004    0.84850056    0.05310000
opls_526-173    H    0.35033996    0.20018003    0.81175130    0.05310000
opls_524-174    H    0.48644987    0.36838000    0.46361983    0.03140000
opls_525-175    H    0.48927005    0.30325990    0.55653106    0.05310000
opls_526-176    H    0.42389008    0.23681009    0.70585122    0.05310000
opls_185-177    H    0.64793014    0.58423004    0.68770049    0.04840000
opls_185-178    H    0.61334007    0.58889995    0.35580102    0.04840000
opls_146-179    H    0.41087992    0.70963979    0.78501913    0.05310000
opls_146-180    H    0.42885001    0.76516977    0.51196027    0.05310000
opls_146-181    H    0.46335976    0.84270976    0.53674926    0.05310000
opls_146-182    H    0.35584987    0.83485989    0.07727088    0.05310000
opls_146-183    H    0.32089977    0.75791980    0.08038104    0.05310000
opls_144-184    H    0.49201998    0.90043988    0.79964990    0.03140000
opls_185-185    H    0.63082994    0.98798974    0.11648981    0.04840000
opls_146-186    H    0.29035995    0.70123997    0.78501913    0.05320000
opls_146-187    H    0.23483009    0.66368003    0.51196027    0.05310000
opls_146-188    H    0.15729004    0.62064992    0.53674926    0.05310000
opls_146-189    H    0.16513994    0.52098991    0.07727088    0.05310000
opls_146-190    H    0.24208004    0.56297985    0.08038104    0.05310000
opls_144-191    H    0.09955985    0.59157989    0.79964990    0.03140000
opls_185-192    H    0.01201000    0.64283979    0.11648981    0.04840000
opls_146-193    H    0.70124002    0.41088007    0.78501913    0.05310000
opls_146-194    H    0.66367984    0.42884980    0.51196027    0.05310000
opls_146-195    H    0.62064996    0.46335999    0.53674926    0.05310000
opls_146-196    H    0.52098980    0.35584981    0.07727088    0.05310000
opls_146-197    H    0.56297996    0.32089996    0.08038104    0.05310000
opls_144-198    H    0.59157998    0.49202007    0.79964990    0.03140000
opls_146-199    H    0.52841000    0.57732997    0.82295981    0.05310000
opls_185-200    H    0.59780006    0.62761985    0.87739029    0.04840000
opls_185-201    H    0.64283983    0.63082984    0.11648981    0.04840000
opls_526-202    H    0.71825000    0.73396975    0.75440877    0.05310000
opls_617-203    H    0.71680986    0.79992996    0.84850056    0.05320000
opls_526-204    H    0.64966004    0.79981997    0.81175130    0.05310000
opls_524-205    H    0.51355013    0.63162000    0.46361983    0.03140000
opls_525-206    H    0.51072980    0.69673980    0.55653106    0.05310000
opls_526-207    H    0.57610992    0.76318991    0.70585122    0.05310000
opls_185-208    H    0.35206986    0.41576996    0.68770049    0.04840000
opls_185-209    H    0.38665993    0.41110005    0.35580102    0.04840000
opls_146-210    H    0.58911993    0.29035990    0.78501913    0.05310000
opls_146-211    H    0.57114984    0.23482993    0.51196027    0.05310000
opls_146-212    H    0.53664009    0.15728993    0.53674926    0.05310000
opls_146-213    H    0.64415013    0.16514011    0.07727088    0.05320000
opls_146-214    H    0.67910007    0.24207989    0.08038104    0.05310000
opls_144-215    H    0.50798002    0.09956012    0.79964990    0.03140000
opls_185-216    H    0.36916991    0.01200995    0.11648981    0.04840000
opls_146-217    H    0.70964005    0.29876003    0.78501913    0.05310000
opls_146-218    H    0.76516991    0.33631997    0.51196027    0.05310000
opls_146-219    H    0.84270996    0.37935008    0.53674926    0.05310000
opls_146-220    H    0.83486006    0.47901009    0.07727088    0.05310000
opls_146-221    H    0.75791981    0.43701984    0.08038104    0.05310000
opls_144-222    H    0.90044000    0.40841980    0.79964990    0.03140000
opls_185-223    H    0.98798984    0.35715991    0.11648981    0.04840000
opls_146-224    H    0.57732990    0.04892004    0.82295981    0.05310000
opls_185-225    H    0.62761976    0.02981975    0.87739029    0.04840000
opls_526-226    H    0.73396988    0.01571996    0.75440877    0.05310000
opls_617-227    H    0.79992997    0.08311986    0.84850056    0.05310000
opls_526-228    H    0.79982001    0.15016007    0.81175130    0.05310000
opls_524-229    H    0.63161991    0.11807001    0.46361983    0.03150000
opls_525-230    H    0.69673991    0.18601007    0.55653106    0.05310000
opls_526-231    H    0.76319000    0.18707997    0.70585122    0.05310000
opls_185-232    H    0.41577009    0.06370001    0.68770049    0.04840000
opls_185-233    H    0.41109999    0.02443995    0.35580102    0.04840000
opls_146-234    H    0.95108010    0.52840992    0.82295981    0.05310000
opls_185-235    H    0.97017988    0.59779979    0.87739029    0.04840000
opls_526-236    H    0.98427986    0.71824980    0.75440877    0.05310000
opls_617-237    H    0.91688001    0.71680979    0.84850056    0.05310000
opls_526-238    H    0.84984003    0.64965990    0.81175130    0.05310000
opls_524-239    H    0.88192995    0.51354999    0.46361983    0.03140000
opls_525-240    H    0.81399004    0.51073003    0.55653106    0.05310000
opls_526-241    H    0.81291992    0.57610995    0.70585122    0.05310000
opls_185-242    H    0.93630004    0.35206995    0.68770049    0.04840000
opls_185-243    H    0.97555994    0.38666010    0.35580102    0.04840000
opls_146-244    H    0.42267010    0.95107996    0.82295981    0.05310000
opls_185-245    H    0.37238009    0.97017994    0.87739029    0.04840000
opls_526-246    H    0.26602997    0.98427974    0.75440877    0.05310000
opls_617-247    H    0.20006988    0.91687983    0.84850056    0.05320000
opls_526-248    H    0.20017999    0.84983993    0.81175130    0.05310000
opls_524-249    H    0.36838009    0.88192999    0.46361983    0.03140000
opls_525-250    H    0.30326009    0.81398993    0.55653106    0.05310000
opls_526-251    H    0.23681000    0.81292003    0.70585122    0.05310000
opls_185-252    H    0.58422991    0.93629999    0.68770049    0.04840000
opls_185-253    H    0.58889986    0.97555974    0.35580102    0.04840000
opls_146-254    H    0.04892017    0.47159008    0.82295981    0.05320000
opls_185-255    H    0.02981997    0.40219990    0.87739029    0.04840000
opls_526-256    H    0.01571999    0.28174989    0.75440877    0.05310000
opls_617-257    H    0.08311984    0.28318990    0.84850056    0.05310000
opls_526-258    H    0.15015997    0.35034010    0.81175130    0.05310000
opls_524-259    H    0.11807005    0.48645001    0.46361983    0.03140000
opls_525-260    H    0.18600996    0.48926997    0.55653106    0.05310000
opls_526-261    H    0.18708008    0.42389005    0.70585122    0.05310000
opls_185-262    H    0.06369996    0.64793005    0.68770049    0.04840000
opls_185-263    H    0.02444006    0.61333990    0.35580102    0.04840000
