#======================================================================
# Crystal Data Generated By AuToFF
#----------------------------------------------------------------------

data_AuToFF_phase_1

_cell_length_a                         45.2632
_cell_length_b                         45.2632
_cell_length_c                         3.5353
_cell_angle_alpha                      90.00
_cell_angle_beta                       90.00
_cell_angle_gamma                      120.00
_symmetry_space_group_name_H-M_alt     'P 1'
_symmetry_space_group_IT_number        1

loop_
_space_group_symop_operation_xyz
   'x, y, z'

loop_
   _atom_site_label
   _atom_site_type_symbol
   _atom_site_fract_x
   _atom_site_fract_y
   _atom_site_fract_z
   _atom_site_charge
opls_145-0    C    0.31073003    0.67920012    0.50000000    -0.07890000
opls_700-1    C    0.29803002    0.64387991    0.50000000    0.12120000
opls_142-2    C    0.35807994    0.73873009    0.50000000    -0.07220000
opls_142-3    C    0.37104008    0.60890000    0.50000000    -0.07230000
opls_700-4    C    0.39556988    0.59665992    0.50000000    0.12600000
opls_145-5    C    0.43848995    0.82168995    0.50000000    -0.09030000
opls_145-6    C    0.45100989    0.85685991    0.50000000    -0.07230000
opls_700-7    C    0.42839011    0.86953010    0.50000000    0.07190000
opls_145-8    C    0.39323011    0.84679003    0.50000000    -0.09030000
opls_145-9    C    0.38071007    0.81163002    0.50000000    -0.07230000
opls_142-10    C    0.44084002    0.90626999    0.50000000    0.02150000
opls_145-11    C    0.48634997    0.96446014    0.50000000    0.23220000
opls_145-12    C    0.52168012    0.98632009    0.50000000    -0.10770000
opls_145-13    C    0.53532007    0.02165995    0.50000000    -0.12980000
opls_145-14    C    0.32080006    0.63153013    0.50000000    -0.07890000
opls_700-15    C    0.35612003    0.65415005    0.50000000    0.12120000
opls_142-16    C    0.26126989    0.61934999    0.50000000    -0.07230000
opls_142-17    C    0.39110004    0.76214008    0.50000000    -0.07230000
opls_700-18    C    0.40334009    0.79891008    0.50000000    0.12600000
opls_145-19    C    0.17830996    0.61679994    0.50000000    -0.09030000
opls_145-20    C    0.14313997    0.59414991    0.50000000    -0.07230000
opls_700-21    C    0.13046995    0.55886005    0.50000000    0.07190000
opls_145-22    C    0.15320999    0.54644012    0.50000000    -0.09030000
opls_145-23    C    0.18837001    0.56907994    0.50000000    -0.07230000
opls_142-24    C    0.09373008    0.53456994    0.50000000    0.02150000
opls_145-25    C    0.03554006    0.52189005    0.50000000    0.23200000
opls_145-26    C    0.01368007    0.53536001    0.50000000    -0.10770000
opls_145-27    C    0.97833998    0.51366001    0.50000000    -0.12980000
opls_145-28    C    0.36847004    0.68927000    0.50000000    -0.07890000
opls_700-29    C    0.34584995    0.70197005    0.50000000    0.12120000
opls_142-30    C    0.38064995    0.64191991    0.50000000    -0.07230000
opls_142-31    C    0.23785988    0.62895991    0.50000000    -0.07230000
opls_700-32    C    0.20109003    0.60443000    0.50000000    0.12600000
opls_145-33    C    0.38320009    0.56151012    0.50000000    -0.09030000
opls_145-34    C    0.40585001    0.54898993    0.50000000    -0.07230000
opls_700-35    C    0.44114007    0.57161010    0.50000000    0.07190000
opls_145-36    C    0.45356003    0.60677011    0.50000000    -0.09030000
opls_145-37    C    0.43091992    0.61929004    0.50000000    -0.07230000
opls_142-38    C    0.46543013    0.55916006    0.50000000    0.02150000
opls_145-39    C    0.47811009    0.51365007    0.50000000    0.23200000
opls_145-40    C    0.46464003    0.47831990    0.50000000    -0.10770000
opls_145-41    C    0.48633996    0.46468004    0.50000000    -0.12980000
opls_145-42    C    0.68927010    0.32080013    0.50000000    -0.07890000
opls_700-43    C    0.70196998    0.35612009    0.50000000    0.12120000
opls_142-44    C    0.64192006    0.26126991    0.50000000    -0.07230000
opls_142-45    C    0.62895992    0.39110000    0.50000000    -0.07230000
opls_700-46    C    0.60443012    0.40334008    0.50000000    0.12600000
opls_145-47    C    0.56151005    0.17831005    0.50000000    -0.09030000
opls_145-48    C    0.54899011    0.14314009    0.50000000    -0.07230000
opls_700-49    C    0.57160989    0.13046990    0.50000000    0.07190000
opls_145-50    C    0.60676989    0.15320997    0.50000000    -0.09030000
opls_145-51    C    0.61928993    0.18836998    0.50000000    -0.07220000
opls_142-52    C    0.55915998    0.09373001    0.50000000    0.02150000
opls_145-53    C    0.51365016    0.03554012    0.50000000    0.23200000
opls_145-54    C    0.47831988    0.01367991    0.50000000    -0.10770000
opls_145-55    C    0.46467993    0.97834005    0.50000000    -0.12970000
opls_145-56    C    0.67920007    0.36847013    0.50000000    -0.07890000
opls_700-57    C    0.64387997    0.34584995    0.50000000    0.12130000
opls_142-58    C    0.73873011    0.38065001    0.50000000    -0.07230000
opls_142-59    C    0.60889996    0.23785992    0.50000000    -0.07230000
opls_700-60    C    0.59665991    0.20108992    0.50000000    0.12600000
opls_145-61    C    0.82169004    0.38320006    0.50000000    -0.09030000
opls_145-62    C    0.85686003    0.40585009    0.50000000    -0.07230000
opls_700-63    C    0.86953005    0.44113995    0.50000000    0.07190000
opls_145-64    C    0.84679014    0.45356013    0.50000000    -0.09030000
opls_145-65    C    0.81162999    0.43092006    0.50000000    -0.07230000
opls_142-66    C    0.90626992    0.46543006    0.50000000    0.02150000
opls_145-67    C    0.96445994    0.47810995    0.50000000    0.23200000
opls_145-68    C    0.98631993    0.46463999    0.50000000    -0.10770000
opls_145-69    C    0.02166002    0.48633999    0.50000000    -0.12970000
opls_145-70    C    0.63152996    0.31073000    0.50000000    -0.07890000
opls_700-71    C    0.65415005    0.29802995    0.50000000    0.12140000
opls_142-72    C    0.61935005    0.35808009    0.50000000    -0.07230000
opls_142-73    C    0.76214012    0.37104009    0.50000000    -0.07230000
opls_700-74    C    0.79890997    0.39557000    0.50000000    0.12610000
opls_145-75    C    0.61680004    0.43849014    0.50000000    -0.09030000
opls_145-76    C    0.59414999    0.45101007    0.50000000    -0.07230000
opls_700-77    C    0.55885993    0.42838990    0.50000000    0.07190000
opls_145-78    C    0.54643997    0.39322989    0.50000000    -0.09030000
opls_145-79    C    0.56908008    0.38070996    0.50000000    -0.07230000
opls_142-80    C    0.53456987    0.44083994    0.50000000    0.02160000
opls_145-81    C    0.52188991    0.48634993    0.50000000    0.23200000
opls_145-82    C    0.53535997    0.52168010    0.50000000    -0.10770000
opls_145-83    C    0.51366004    0.53531996    0.50000000    -0.12980000
opls_750-84    N    0.47318006    0.92837995    0.50000000    -0.27420000
opls_750-85    N    0.07161991    0.54480003    0.50000000    -0.27430000
opls_750-86    N    0.45520003    0.52682002    0.50000000    -0.27430000
opls_750-87    N    0.52681994    0.07162005    0.50000000    -0.27420000
opls_750-88    N    0.92838009    0.45519997    0.50000000    -0.27430000
opls_750-89    N    0.54479997    0.47317998    0.50000000    -0.27430000
opls_146-90    H    0.29233994    0.68952001    0.50000000    0.05090000
opls_144-91    H    0.33902007    0.74823006    0.50000000    0.05030000
opls_144-92    H    0.34276993    0.58885999    0.50000000    0.05090000
opls_146-93    H    0.45706986    0.81159992    0.50000000    0.05090000
opls_146-94    H    0.47970002    0.87532998    0.50000000    0.05090000
opls_146-95    H    0.37469011    0.85692011    0.50000000    0.05100000
opls_146-96    H    0.35201993    0.79315994    0.50000000    0.05090000
opls_144-97    H    0.42192997    0.91596002    0.50000000    0.03010000
opls_146-98    H    0.53950990    0.97533998    0.50000000    0.05090000
opls_146-99    H    0.56414995    0.03936011    0.50000000    0.05090000
opls_146-100    H    0.31048007    0.60282002    0.50000000    0.05090000
opls_144-101    H    0.25177001    0.59079014    0.50000000    0.05030000
opls_144-102    H    0.41113997    0.75391004    0.50000000    0.05090000
opls_146-103    H    0.18840004    0.64547000    0.50000000    0.05090000
opls_146-104    H    0.12466996    0.60437005    0.50000000    0.05090000
opls_146-105    H    0.14308014    0.51777006    0.50000000    0.05090000
opls_146-106    H    0.20683993    0.55886005    0.50000000    0.05100000
opls_144-107    H    0.08404005    0.50597004    0.50000000    0.03010000
opls_146-108    H    0.02466005    0.56417013    0.50000000    0.05090000
opls_146-109    H    0.96063999    0.52479012    0.50000000    0.05090000
opls_146-110    H    0.39717999    0.70765998    0.50000000    0.05090000
opls_144-111    H    0.40921005    0.66098005    0.50000000    0.05030000
opls_144-112    H    0.24608989    0.65722997    0.50000000    0.05090000
opls_146-113    H    0.35453010    0.54293009    0.50000000    0.05090000
opls_146-114    H    0.39563002    0.52029997    0.50000000    0.05090000
opls_146-115    H    0.48223011    0.62531008    0.50000000    0.05090000
opls_146-116    H    0.44113992    0.64798000    0.50000000    0.05090000
opls_144-117    H    0.49402998    0.57806994    0.50000000    0.03010000
opls_146-118    H    0.43582983    0.46048989    0.50000000    0.05090000
opls_146-119    H    0.47520996    0.43585003    0.50000000    0.05090000
opls_146-120    H    0.70766006    0.31047999    0.50000000    0.05090000
opls_144-121    H    0.66097993    0.25176994    0.50000000    0.05040000
opls_144-122    H    0.65723007    0.41114001    0.50000000    0.05090000
opls_146-123    H    0.54293014    0.18840008    0.50000000    0.05090000
opls_146-124    H    0.52029998    0.12467002    0.50000000    0.05090000
opls_146-125    H    0.62530989    0.14307989    0.50000000    0.05090000
opls_146-126    H    0.64798007    0.20684006    0.50000000    0.05090000
opls_144-127    H    0.57807003    0.08403998    0.50000000    0.03010000
opls_146-128    H    0.46049010    0.02466002    0.50000000    0.05090000
opls_146-129    H    0.43585017    0.96064015    0.50000000    0.05090000
opls_146-130    H    0.68951993    0.39717998    0.50000000    0.05100000
opls_144-131    H    0.74823012    0.40921011    0.50000000    0.05030000
opls_144-132    H    0.58886003    0.24608996    0.50000000    0.05090000
opls_146-133    H    0.81159996    0.35453000    0.50000000    0.05090000
opls_146-134    H    0.87533004    0.39562995    0.50000000    0.05090000
opls_146-135    H    0.85691986    0.48222994    0.50000000    0.05090000
opls_146-136    H    0.79316007    0.44113995    0.50000000    0.05090000
opls_144-137    H    0.91595995    0.49402996    0.50000000    0.03010000
opls_146-138    H    0.97534008    0.43583013    0.50000000    0.05090000
opls_146-139    H    0.03936013    0.47521013    0.50000000    0.05090000
opls_146-140    H    0.60282001    0.29234002    0.50000000    0.05100000
opls_144-141    H    0.59078995    0.33901995    0.50000000    0.05030000
opls_144-142    H    0.75391011    0.34277003    0.50000000    0.05090000
opls_146-143    H    0.64546990    0.45706991    0.50000000    0.05090000
opls_146-144    H    0.60436998    0.47970003    0.50000000    0.05090000
opls_146-145    H    0.51776989    0.37468992    0.50000000    0.05090000
opls_146-146    H    0.55886008    0.35202000    0.50000000    0.05090000
opls_144-147    H    0.50597002    0.42193006    0.50000000    0.03010000
opls_146-148    H    0.56417017    0.53951011    0.50000000    0.05090000
opls_146-149    H    0.52479004    0.56414997    0.50000000    0.05090000
