#======================================================================
# Crystal Data Generated By AuToFF
#----------------------------------------------------------------------

data_AuToFF_phase_1

_cell_length_a                         36.8750
_cell_length_b                         36.8750
_cell_length_c                         4.1044
_cell_angle_alpha                      90.00
_cell_angle_beta                       90.00
_cell_angle_gamma                      120.00
_symmetry_space_group_name_H-M_alt     'P 1'
_symmetry_space_group_IT_number        1

loop_
_space_group_symop_operation_xyz
   'x, y, z'

loop_
   _atom_site_label
   _atom_site_type_symbol
   _atom_site_fract_x
   _atom_site_fract_y
   _atom_site_fract_z
   _atom_site_charge
opls_700-0    C    0.28918984    0.64732991    0.49999025    0.06960000
opls_145-1    C    0.30881006    0.62301998    0.50210993    -0.17220000
opls_700-2    C    0.24273004    0.62690009    0.47635952    0.06530000
opls_145-3    C    0.35460000    0.57866007    0.29132882    -0.12850000
opls_145-4    C    0.37456991    0.55518998    0.25641994    -0.16490000
opls_917-5    C    0.41348989    0.56859985    0.40248027    0.22210000
opls_145-6    C    0.43216985    0.60533984    0.58736965    -0.16650000
opls_145-7    C    0.41198994    0.62859981    0.62719033    -0.12800000
opls_701-8    C    0.42445003    0.50746007    0.51884076    0.08230000
opls_700-9    C    0.46310003    0.50279993    0.56825115    -0.03460000
opls_166-10    C    0.46021996    0.46336006    0.60923887    0.23580000
opls_145-11    C    0.49723012    0.46103000    0.59695936    -0.28060000
opls_181-12    C    0.58194984    0.60996991    0.77212991    -0.19560000
opls_423-13    C    0.39091999    0.47226981    0.33653884    0.23040000
opls_700-14    C    0.35266993    0.64186000    0.49999025    0.06960000
opls_145-15    C    0.37697986    0.68578997    0.50210993    -0.17220000
opls_700-16    C    0.37310008    0.61583000    0.47635952    0.06530000
opls_145-17    C    0.42133998    0.77593989    0.29132882    -0.12850000
opls_145-18    C    0.44480990    0.81937980    0.25641994    -0.16490000
opls_917-19    C    0.43140011    0.84488999    0.40248027    0.22210000
opls_145-20    C    0.39466002    0.82683001    0.58736965    -0.16650000
opls_145-21    C    0.37139984    0.78338979    0.62719033    -0.12800000
opls_701-22    C    0.49254000    0.91698996    0.51884076    0.08230000
opls_700-23    C    0.49719999    0.96029991    0.56825115    -0.03460000
opls_166-24    C    0.53663982    0.99685984    0.60923887    0.23580000
opls_145-25    C    0.53897003    0.03620013    0.59695936    -0.28280000
opls_181-26    C    0.39003014    0.97198000    0.77212991    -0.19560000
opls_423-27    C    0.52772983    0.91864991    0.33653884    0.23040000
opls_700-28    C    0.35813981    0.71080978    0.49999025    0.06960000
opls_145-29    C    0.31421008    0.69119005    0.50210993    -0.17220000
opls_700-30    C    0.38416987    0.75726992    0.47635952    0.06530000
opls_145-31    C    0.22406002    0.64540003    0.29132882    -0.12850000
opls_145-32    C    0.18062004    0.62542990    0.25641994    -0.16490000
opls_917-33    C    0.15510984    0.58650984    0.40248027    0.22180000
opls_145-34    C    0.17316997    0.56782984    0.58736965    -0.16650000
opls_145-35    C    0.21661006    0.58801009    0.62719033    -0.12800000
opls_701-36    C    0.08300997    0.57554997    0.51884076    0.08230000
opls_700-37    C    0.03969982    0.53689984    0.56825115    -0.03460000
opls_166-38    C    0.00313995    0.53978009    0.60923887    0.23580000
opls_145-39    C    0.96379985    0.50276987    0.59695936    -0.28280000
opls_181-40    C    0.02802003    0.41805009    0.77212991    -0.19560000
opls_423-41    C    0.08135002    0.60907997    0.33653884    0.23040000
opls_700-42    C    0.71081016    0.35267009    0.49999025    0.06960000
opls_145-43    C    0.69118994    0.37698002    0.50210993    -0.17220000
opls_700-44    C    0.75726996    0.37309991    0.47635952    0.06530000
opls_145-45    C    0.64540000    0.42133993    0.29132882    -0.12850000
opls_145-46    C    0.62543009    0.44481002    0.25641994    -0.16490000
opls_917-47    C    0.58650995    0.43139984    0.40248027    0.22210000
opls_145-48    C    0.56782999    0.39465985    0.58736965    -0.16650000
opls_145-49    C    0.58800991    0.37139988    0.62719033    -0.12800000
opls_701-50    C    0.57554997    0.49253993    0.51884076    0.08230000
opls_700-51    C    0.53689997    0.49720007    0.56825115    -0.03460000
opls_166-52    C    0.53978004    0.53663994    0.60923887    0.23580000
opls_145-53    C    0.50276988    0.53897000    0.59695936    -0.28060000
opls_181-54    C    0.41805016    0.39003009    0.77212991    -0.19560000
opls_423-55    C    0.60907985    0.52772988    0.33653884    0.23040000
opls_700-56    C    0.64733007    0.35814000    0.49999025    0.06960000
opls_145-57    C    0.62302014    0.31421003    0.50210993    -0.17220000
opls_700-58    C    0.62689992    0.38417000    0.47635952    0.06530000
opls_145-59    C    0.57866002    0.22406011    0.29132882    -0.12850000
opls_145-60    C    0.55518994    0.18061988    0.25641994    -0.16490000
opls_917-61    C    0.56859989    0.15511001    0.40248027    0.22180000
opls_145-62    C    0.60533998    0.17316999    0.58736965    -0.16650000
opls_145-63    C    0.62860000    0.21660990    0.62719033    -0.12800000
opls_701-64    C    0.50746000    0.08301004    0.51884076    0.08230000
opls_700-65    C    0.50280001    0.03970009    0.56825115    -0.03460000
opls_166-66    C    0.46336002    0.00313985    0.60923887    0.23590000
opls_145-67    C    0.46102997    0.96379987    0.59695936    -0.28060000
opls_181-68    C    0.60996986    0.02802000    0.77212991    -0.19560000
opls_423-69    C    0.47227017    0.08135009    0.33653884    0.23040000
opls_700-70    C    0.64186004    0.28918991    0.49999025    0.06960000
opls_145-71    C    0.68578992    0.30880995    0.50210993    -0.17210000
opls_700-72    C    0.61583013    0.24273008    0.47635952    0.06530000
opls_145-73    C    0.77593998    0.35459997    0.29132882    -0.12850000
opls_145-74    C    0.81937996    0.37457010    0.25641994    -0.16480000
opls_917-75    C    0.84489001    0.41348984    0.40248027    0.22180000
opls_145-76    C    0.82682987    0.43216984    0.58736965    -0.16650000
opls_145-77    C    0.78338994    0.41198991    0.62719033    -0.12800000
opls_701-78    C    0.91699003    0.42445003    0.51884076    0.08230000
opls_700-79    C    0.96030002    0.46309985    0.56825115    -0.03460000
opls_166-80    C    0.99686005    0.46021991    0.60923887    0.23580000
opls_145-81    C    0.03619999    0.49722981    0.59695936    -0.28280000
opls_181-82    C    0.97197997    0.58194991    0.77212991    -0.19560000
opls_423-83    C    0.91864998    0.39092003    0.33653884    0.23040000
opls_900-84    N    0.43532013    0.54633003    0.34575090    -0.41040000
opls_753-85    N    0.36439990    0.44456984    0.19459117    -0.29130000
opls_900-86    N    0.45367005    0.88899000    0.34575090    -0.41030000
opls_753-87    N    0.55543003    0.91982982    0.19459117    -0.29110000
opls_900-88    N    0.11101009    0.56467998    0.34575090    -0.41030000
opls_753-89    N    0.08016991    0.63560003    0.19459117    -0.29130000
opls_900-90    N    0.56467987    0.45366997    0.34575090    -0.41040000
opls_753-91    N    0.63559994    0.55542985    0.19459117    -0.29120000
opls_900-92    N    0.54632995    0.11101000    0.34575090    -0.41040000
opls_753-93    N    0.44456982    0.08016987    0.19459117    -0.29130000
opls_900-94    N    0.88898991    0.43532002    0.34575090    -0.41030000
opls_753-95    N    0.91983009    0.36439997    0.19459117    -0.29130000
opls_179-96    O    0.42038012    0.42781001    0.66059107    -0.20610000
opls_179-97    O    0.57219000    0.99256984    0.66059107    -0.20610000
opls_179-98    O    0.00742999    0.57961984    0.66059107    -0.20610000
opls_179-99    O    0.57961988    0.57218999    0.66059107    -0.20610000
opls_179-100    O    0.42780984    0.00742985    0.66059107    -0.20610000
opls_179-101    O    0.99256985    0.42037984    0.66059107    -0.20610000
opls_146-102    H    0.28984985    0.58924981    0.49766105    0.12200000
opls_146-103    H    0.32545003    0.56841980    0.16267908    0.11920000
opls_146-104    H    0.36035992    0.52731998    0.10638096    0.11900000
opls_146-105    H    0.46233016    0.61587008    0.70079914    0.11800000
opls_146-106    H    0.42678994    0.65643005    0.77749001    0.11940000
opls_146-107    H    0.49542995    0.43092011    0.60726050    0.12490000
opls_185-108    H    0.57131988    0.62368979    0.57979973    0.07400000
opls_185-109    H    0.61507005    0.63300004    0.82892018    0.07420000
opls_185-110    H    0.56321990    0.60414991    0.99786083    0.07440000
opls_910-111    H    0.45647994    0.55610999    0.15168112    0.27140000
opls_702-112    H    0.41160986    0.50816996    0.75977000    0.05830000
opls_146-113    H    0.41074984    0.70059988    0.49766105    0.12200000
opls_146-114    H    0.43157997    0.75703005    0.16267908    0.11910000
opls_146-115    H    0.47267993    0.83303987    0.10638096    0.11900000
opls_146-116    H    0.38412995    0.84645976    0.70079914    0.11760000
opls_146-117    H    0.34357000    0.77036007    0.77749001    0.11900000
opls_146-118    H    0.56908000    0.06451010    0.60726050    0.12490000
opls_185-119    H    0.37630991    0.94762999    0.57979973    0.07400000
opls_185-120    H    0.36700000    0.98206997    0.82892018    0.07420000
opls_185-121    H    0.39585007    0.95906990    0.99786083    0.07450000
opls_910-122    H    0.44388984    0.90036979    0.15168112    0.27140000
opls_702-123    H    0.49183000    0.90343980    0.75977000    0.05830000
opls_146-124    H    0.29939988    0.71015000    0.49766105    0.12200000
opls_146-125    H    0.24296983    0.67454984    0.16267908    0.11910000
opls_146-126    H    0.16695999    0.63963984    0.10638096    0.11900000
opls_146-127    H    0.15354001    0.53766985    0.70079914    0.11760000
opls_146-128    H    0.22964006    0.57320989    0.77749001    0.11940000
opls_146-129    H    0.93548978    0.50456980    0.60726050    0.12490000
opls_185-130    H    0.05237006    0.42867991    0.57979973    0.07400000
opls_185-131    H    0.01792995    0.38492999    0.82892018    0.07420000
opls_185-132    H    0.04092987    0.43677988    0.99786083    0.07440000
opls_910-133    H    0.09963006    0.54351992    0.15168112    0.27140000
opls_702-134    H    0.09655998    0.58838993    0.75977000    0.05830000
opls_146-135    H    0.71014999    0.41074988    0.49766105    0.12200000
opls_146-136    H    0.67455008    0.43157989    0.16267908    0.11910000
opls_146-137    H    0.63964008    0.47268002    0.10638096    0.11900000
opls_146-138    H    0.53766984    0.38412992    0.70079914    0.11800000
opls_146-139    H    0.57321006    0.34356995    0.77749001    0.11900000
opls_146-140    H    0.50457005    0.56907989    0.60726050    0.12490000
opls_185-141    H    0.42867997    0.37630990    0.57979973    0.07400000
opls_185-142    H    0.38492995    0.36699996    0.82892018    0.07420000
opls_185-143    H    0.43678010    0.39585009    0.99786083    0.07440000
opls_910-144    H    0.54352006    0.44389001    0.15168112    0.27150000
opls_702-145    H    0.58839014    0.49183004    0.75977000    0.05830000
opls_146-146    H    0.58925016    0.29940012    0.49766105    0.12200000
opls_146-147    H    0.56842003    0.24296995    0.16267908    0.11910000
opls_146-148    H    0.52732007    0.16696013    0.10638096    0.11900000
opls_146-149    H    0.61586990    0.15353993    0.70079914    0.11760000
opls_146-150    H    0.65643000    0.22963993    0.77749001    0.11900000
opls_146-151    H    0.43092000    0.93548990    0.60726050    0.12490000
opls_185-152    H    0.62369009    0.05237001    0.57979973    0.07400000
opls_185-153    H    0.63300000    0.01793003    0.82892018    0.07420000
opls_185-154    H    0.60414993    0.04093010    0.99786083    0.07440000
opls_910-155    H    0.55611000    0.09962990    0.15168112    0.27140000
opls_702-156    H    0.50816984    0.09655989    0.75977000    0.05830000
opls_146-157    H    0.70060012    0.28985000    0.49766105    0.12200000
opls_146-158    H    0.75703001    0.32544985    0.16267908    0.11910000
opls_146-159    H    0.83303986    0.36035985    0.10638096    0.11910000
opls_146-160    H    0.84645983    0.46232984    0.70079914    0.11760000
opls_146-161    H    0.77035978    0.42678980    0.77749001    0.11940000
opls_146-162    H    0.06451006    0.49542989    0.60726050    0.12490000
opls_185-163    H    0.94762994    0.57132009    0.57979973    0.07400000
opls_185-164    H    0.98207005    0.61507001    0.82892018    0.07420000
opls_185-165    H    0.95906997    0.56321981    0.99786083    0.07440000
opls_910-166    H    0.90036994    0.45648008    0.15168112    0.27140000
opls_702-167    H    0.90344002    0.41161007    0.75977000    0.05830000
