#======================================================================
# Crystal Data Generated By AuToFF
#----------------------------------------------------------------------

data_AuToFF_phase_1

_cell_length_a                         48.7280
_cell_length_b                         48.7280
_cell_length_c                         3.3900
_cell_angle_alpha                      90.00
_cell_angle_beta                       90.00
_cell_angle_gamma                      120.00
_symmetry_space_group_name_H-M_alt     'P 1'
_symmetry_space_group_IT_number        1

loop_
_space_group_symop_operation_xyz
   'x, y, z'

loop_
   _atom_site_label
   _atom_site_type_symbol
   _atom_site_fract_x
   _atom_site_fract_y
   _atom_site_fract_z
   _atom_site_charge
opls_167-0    O    0.54784989    0.40477999    0.50000000    -0.32690000
opls_167-1    O    0.59521995    0.14307001    0.50000000    -0.32690000
opls_167-2    O    0.85694001    0.45215000    0.50000000    -0.32690000
opls_167-3    O    0.45215011    0.59522001    0.50000000    -0.32690000
opls_167-4    O    0.40477990    0.85693994    0.50000000    -0.32690000
opls_167-5    O    0.14307005    0.54785000    0.50000000    -0.32690000
opls_167-6    O    0.40477995    0.54785000    0.50000000    -0.32690000
opls_167-7    O    0.14306991    0.59522001    0.50000000    -0.32690000
opls_167-8    O    0.45214999    0.85693994    0.50000000    -0.32690000
opls_167-9    O    0.59522005    0.45215000    0.50000000    -0.32690000
opls_167-10    O    0.85693994    0.40477999    0.50000000    -0.32690000
opls_167-11    O    0.54785006    0.14307001    0.50000000    -0.32690000
opls_166-12    C    0.57277004    0.39851004    0.50000000    0.17220000
opls_166-13    C    0.60150000    0.17426005    0.50000000    0.17300000
opls_166-14    C    0.82574002    0.42722992    0.50000000    0.17300000
opls_166-15    C    0.42723001    0.60149992    0.50000000    0.17300000
opls_166-16    C    0.39851006    0.82573995    0.50000000    0.17220000
opls_166-17    C    0.17425986    0.57276985    0.50000000    0.17300000
opls_166-18    C    0.39850999    0.57276985    0.50000000    0.17220000
opls_166-19    C    0.17426005    0.60149992    0.50000000    0.17300000
opls_166-20    C    0.42722989    0.82573995    0.50000000    0.17300000
opls_166-21    C    0.60149995    0.42722992    0.50000000    0.17300000
opls_166-22    C    0.82574000    0.39851004    0.50000000    0.17220000
opls_166-23    C    0.57277011    0.17426005    0.50000000    0.17300000
opls_145-24    C    0.57207994    0.36959987    0.50000000    -0.23820000
opls_145-25    C    0.63039994    0.20246997    0.50000000    -0.23820000
opls_145-26    C    0.79753006    0.42792992    0.50000000    -0.24140000
opls_145-27    C    0.42793000    0.63039989    0.50000000    -0.23830000
opls_145-28    C    0.36960006    0.79753003    0.50000000    -0.24300000
opls_145-29    C    0.20246999    0.57208003    0.50000000    -0.24140000
opls_145-30    C    0.36959998    0.57208003    0.50000000    -0.24140000
opls_145-31    C    0.20246989    0.63039989    0.50000000    -0.23820000
opls_145-32    C    0.42792997    0.79753003    0.50000000    -0.24140000
opls_145-33    C    0.63039986    0.42792992    0.50000000    -0.23830000
opls_145-34    C    0.79752999    0.36959987    0.50000000    -0.24300000
opls_145-35    C    0.57208008    0.20246997    0.50000000    -0.24140000
opls_700-36    C    0.60111999    0.36913992    0.50000000    0.07250000
opls_700-37    C    0.63087007    0.23199009    0.50000000    0.07230000
opls_700-38    C    0.76800999    0.39887994    0.50000000    0.07250000
opls_700-39    C    0.39888006    0.63087004    0.50000000    0.07230000
opls_700-40    C    0.36912993    0.76800991    0.50000000    0.07230000
opls_700-41    C    0.23199001    0.60112006    0.50000000    0.07250000
opls_700-42    C    0.36913005    0.60112006    0.50000000    0.07250000
opls_700-43    C    0.23198998    0.63087004    0.50000000    0.07230000
opls_700-44    C    0.39887997    0.76800991    0.50000000    0.07230000
opls_700-45    C    0.63086995    0.39887994    0.50000000    0.07250000
opls_700-46    C    0.76800987    0.36913992    0.50000000    0.07230000
opls_700-47    C    0.60112003    0.23199009    0.50000000    0.07250000
opls_145-48    C    0.45712013    0.54288005    0.50000000    -0.19800000
opls_145-49    C    0.45712000    0.91424984    0.50000000    -0.19790000
opls_145-50    C    0.08575007    0.54288005    0.50000000    -0.19800000
opls_145-51    C    0.54287987    0.45711995    0.50000000    -0.19790000
opls_145-52    C    0.54287988    0.08574992    0.50000000    -0.19790000
opls_145-53    C    0.91424993    0.45711995    0.50000000    -0.19790000
opls_700-54    C    0.49200003    0.45760004    0.50000000    0.07640000
opls_700-55    C    0.54240010    0.03440002    0.50000000    0.07640000
opls_700-56    C    0.96559987    0.50799994    0.50000000    0.07620000
opls_700-57    C    0.50799997    0.54239996    0.50000000    0.07640000
opls_700-58    C    0.45759990    0.96559998    0.50000000    0.07640000
opls_700-59    C    0.03440013    0.49200006    0.50000000    0.07640000
opls_700-60    C    0.45759993    0.49200006    0.50000000    0.07640000
opls_700-61    C    0.03439999    0.54239996    0.50000000    0.07640000
opls_700-62    C    0.50800008    0.96559998    0.50000000    0.07640000
opls_700-63    C    0.54240007    0.50799994    0.50000000    0.07620000
opls_700-64    C    0.96560001    0.45760004    0.50000000    0.07640000
opls_700-65    C    0.49199992    0.03440002    0.50000000    0.07640000
opls_145-66    C    0.49068984    0.55864984    0.50000000    -0.06940000
opls_145-67    C    0.44135001    0.93204002    0.50000000    -0.06860000
opls_145-68    C    0.06796003    0.50930990    0.50000000    -0.06940000
opls_145-69    C    0.50931004    0.44134992    0.50000000    -0.06940000
opls_145-70    C    0.55864999    0.06795998    0.50000000    -0.06860000
opls_145-71    C    0.93203985    0.49068986    0.50000000    -0.06830000
opls_145-72    C    0.55865001    0.49068986    0.50000000    -0.06940000
opls_145-73    C    0.93203989    0.44134992    0.50000000    -0.06860000
opls_145-74    C    0.50930998    0.06795998    0.50000000    -0.06940000
opls_145-75    C    0.44134987    0.50930990    0.50000000    -0.06940000
opls_145-76    C    0.06796000    0.55864984    0.50000000    -0.06860000
opls_145-77    C    0.49069002    0.93204002    0.50000000    -0.06860000
opls_145-78    C    0.45795000    0.44172007    0.50000000    -0.12210000
opls_145-79    C    0.55827999    0.01622998    0.50000000    -0.12210000
opls_145-80    C    0.98377001    0.54204995    0.50000000    -0.12200000
opls_145-81    C    0.54205000    0.55827993    0.50000000    -0.12200000
opls_145-82    C    0.44171990    0.98376979    0.50000000    -0.12200000
opls_145-83    C    0.01622999    0.45795005    0.50000000    -0.12200000
opls_145-84    C    0.44172006    0.45795005    0.50000000    -0.12200000
opls_145-85    C    0.01622993    0.55827993    0.50000000    -0.12200000
opls_145-86    C    0.54204989    0.98376979    0.50000000    -0.12200000
opls_145-87    C    0.55827994    0.54204995    0.50000000    -0.12200000
opls_145-88    C    0.98377007    0.44172007    0.50000000    -0.12200000
opls_145-89    C    0.45794999    0.01622998    0.50000000    -0.12210000
opls_261-90    C    0.39920990    0.68563987    0.50000000    -0.04210000
opls_261-91    C    0.31435987    0.71356993    0.50000000    -0.04210000
opls_261-92    C    0.28642991    0.60078996    0.50000000    -0.04210000
opls_261-93    C    0.60078999    0.31435989    0.50000000    -0.04210000
opls_261-94    C    0.68564013    0.28643007    0.50000000    -0.04210000
opls_261-95    C    0.71357009    0.39921004    0.50000000    -0.04210000
opls_261-96    C    0.68563995    0.39921004    0.50000000    -0.04210000
opls_261-97    C    0.71356991    0.31435989    0.50000000    -0.04210000
opls_261-98    C    0.60078994    0.28643007    0.50000000    -0.04210000
opls_261-99    C    0.31436005    0.60078996    0.50000000    -0.04210000
opls_261-100    C    0.28642997    0.68563987    0.50000000    -0.04210000
opls_261-101    C    0.39921006    0.71356993    0.50000000    -0.04210000
opls_261-102    C    0.39925988    0.66023992    0.50000000    -0.07730000
opls_261-103    C    0.33975990    0.73901988    0.50000000    -0.07730000
opls_261-104    C    0.26097990    0.60073996    0.50000000    -0.07730000
opls_261-105    C    0.60074012    0.33976008    0.50000000    -0.07730000
opls_261-106    C    0.66023998    0.26097988    0.50000000    -0.07730000
opls_261-107    C    0.73902010    0.39926004    0.50000000    -0.07730000
opls_261-108    C    0.66023994    0.39926004    0.50000000    -0.07740000
opls_261-109    C    0.73901996    0.33976008    0.50000000    -0.07730000
opls_261-110    C    0.60073990    0.26097988    0.50000000    -0.07730000
opls_261-111    C    0.33976006    0.60073996    0.50000000    -0.07730000
opls_261-112    C    0.26098004    0.66023992    0.50000000    -0.07730000
opls_261-113    C    0.39925998    0.73901988    0.50000000    -0.07730000
opls_700-114    C    0.50850987    0.49148987    0.50000000    0.00130000
opls_700-115    C    0.50851002    0.01702003    0.50000000    0.00130000
opls_700-116    C    0.98297999    0.49148987    0.50000000    0.00130000
opls_700-117    C    0.49149001    0.50850990    0.50000000    0.00130000
opls_700-118    C    0.49148998    0.98297997    0.50000000    0.00130000
opls_700-119    C    0.01701989    0.50850990    0.50000000    0.00130000
MOF2_B_2-120    B    0.56171003    0.43828995    0.50000000    0.61350000
MOF2_B_2-121    B    0.56171010    0.12343005    0.50000000    0.61340000
MOF2_B_2-122    B    0.87657007    0.43828995    0.50000000    0.61350000
MOF2_B_2-123    B    0.43828997    0.56171005    0.50000000    0.61350000
MOF2_B_2-124    B    0.43828990    0.87656995    0.50000000    0.61350000
MOF2_B_2-125    B    0.12342993    0.56171005    0.50000000    0.61350000
opls_146-126    H    0.54971009    0.34728999    0.50000000    0.11660000
opls_146-127    H    0.65270994    0.20241997    0.50000000    0.11780000
opls_146-128    H    0.79757996    0.45029004    0.50000000    0.11730000
opls_146-129    H    0.45028991    0.65271001    0.50000000    0.11780000
opls_146-130    H    0.34728990    0.79758998    0.50000000    0.11660000
opls_146-131    H    0.20242004    0.54970996    0.50000000    0.11570000
opls_146-132    H    0.34728993    0.54970996    0.50000000    0.11660000
opls_146-133    H    0.20242010    0.65271001    0.50000000    0.11780000
opls_146-134    H    0.45028997    0.79758003    0.50000000    0.11780000
opls_146-135    H    0.65271007    0.45029004    0.50000000    0.11780000
opls_146-136    H    0.79757990    0.34728999    0.50000000    0.11780000
opls_146-137    H    0.54971003    0.20241997    0.50000000    0.11570000
opls_146-138    H    0.50410993    0.58453984    0.50000000    0.11680000
opls_146-139    H    0.41546003    0.91957998    0.50000000    0.11670000
opls_146-140    H    0.08042997    0.49588990    0.50000000    0.11680000
opls_146-141    H    0.49588995    0.41545992    0.50000000    0.11680000
opls_146-142    H    0.58454002    0.08042997    0.50000000    0.11680000
opls_146-143    H    0.91957008    0.50412005    0.50000000    0.10930000
opls_146-144    H    0.58454012    0.50412005    0.50000000    0.11680000
opls_146-145    H    0.91958003    0.41545992    0.50000000    0.11680000
opls_146-146    H    0.49588996    0.08042997    0.50000000    0.11680000
opls_146-147    H    0.41545993    0.49588990    0.50000000    0.11680000
opls_146-148    H    0.08042991    0.58453984    0.50000000    0.11680000
opls_146-149    H    0.50410989    0.91957998    0.50000000    0.11590000
opls_146-150    H    0.44492009    0.41584002    0.50000000    0.11450000
opls_146-151    H    0.58416002    0.02909002    0.50000000    0.11450000
opls_146-152    H    0.97090988    0.55507991    0.50000000    0.11460000
opls_146-153    H    0.55507991    0.58415998    0.50000000    0.11450000
opls_146-154    H    0.41583998    0.97090998    0.50000000    0.11440000
opls_146-155    H    0.02909000    0.44491986    0.50000000    0.11460000
opls_146-156    H    0.41583991    0.44491986    0.50000000    0.11450000
opls_146-157    H    0.02908997    0.58416993    0.50000000    0.11460000
opls_146-158    H    0.55508005    0.97090998    0.50000000    0.11460000
opls_146-159    H    0.58415997    0.55507991    0.50000000    0.11450000
opls_146-160    H    0.97091008    0.41584002    0.50000000    0.11450000
opls_146-161    H    0.44491995    0.02909002    0.50000000    0.11460000
