#======================================================================
# Crystal Data Generated By AuToFF
#----------------------------------------------------------------------

data_AuToFF_phase_1

_cell_length_a                         30.1271
_cell_length_b                         30.1271
_cell_length_c                         3.1283
_cell_angle_alpha                      90.00
_cell_angle_beta                       90.00
_cell_angle_gamma                      120.00
_symmetry_space_group_name_H-M_alt     'P 1'
_symmetry_space_group_IT_number        1

loop_
_space_group_symop_operation_xyz
   'x, y, z'

loop_
   _atom_site_label
   _atom_site_type_symbol
   _atom_site_fract_x
   _atom_site_fract_y
   _atom_site_fract_z
   _atom_site_charge
opls_145-0    C    0.64904000    0.28359006    0.51309018    -0.09910000
opls_142-1    C    0.51746981    0.53211991    0.47594860    0.08250000
opls_145-2    C    0.42225003    0.58030005    0.45610076    0.14960000
opls_145-3    C    0.40808022    0.53532026    0.56047054    -0.23050000
opls_145-4    C    0.43861991    0.51920004    0.56355848    -0.22130000
opls_145-5    C    0.48427004    0.54794999    0.46447911    0.02400000
opls_145-6    C    0.49853985    0.59276995    0.35697024    -0.22130000
opls_145-7    C    0.46786017    0.60875028    0.34874852    -0.23050000
opls_280-8    C    0.29922011    0.68095994    0.24388006    0.22750000
opls_142-9    C    0.39995002    0.64098996    0.37149890    0.08390000
opls_145-10    C    0.28429013    0.63205003    0.29055078    -0.09600000
opls_280-11    C    0.61755997    0.30168990    0.46835981    0.22750000
opls_145-12    C    0.53387019    0.47092024    0.56411150    0.15420000
opls_145-13    C    0.57938012    0.49698994    0.67957037    -0.23050000
opls_145-14    C    0.60647012    0.47701012    0.71286002    -0.23050000
opls_145-15    C    0.58889995    0.43080002    0.63138126    0.14960000
opls_145-16    C    0.54330994    0.40489015    0.51432088    -0.23050000
opls_145-17    C    0.51608018    0.42479024    0.48668926    -0.23050000
opls_142-18    C    0.60466981    0.36520992    0.58753956    0.08390000
opls_145-19    C    0.71641007    0.36545024    0.51309018    -0.09910000
opls_142-20    C    0.46788006    0.98535003    0.47594860    0.08250000
opls_145-21    C    0.41970018    0.84195022    0.45610076    0.14960000
opls_145-22    C    0.46468024    0.87276028    0.56047054    -0.23050000
opls_145-23    C    0.48079996    0.91941996    0.56355848    -0.22130000
opls_145-24    C    0.45205000    0.93632016    0.46447911    0.02400000
opls_145-25    C    0.40723007    0.90576996    0.35697024    -0.22130000
opls_145-26    C    0.39125009    0.85911027    0.34874852    -0.23050000
opls_280-27    C    0.31904008    0.61826013    0.24388006    0.22750000
opls_142-28    C    0.35901013    0.75896014    0.37149890    0.08390000
opls_145-29    C    0.36795025    0.65224027    0.29055078    -0.09600000
opls_280-30    C    0.69830994    0.31586998    0.46835981    0.22750000
opls_145-31    C    0.52908019    0.06295009    0.56411150    0.15420000
opls_145-32    C    0.50301004    0.08238987    0.67957037    -0.23050000
opls_145-33    C    0.52298986    0.12946004    0.71286002    -0.23050000
opls_145-34    C    0.56920006    0.15809999    0.63138126    0.14960000
opls_145-35    C    0.59510989    0.13841990    0.51432088    -0.23050000
opls_145-36    C    0.57521004    0.09128993    0.48668926    -0.23050000
opls_142-37    C    0.63478986    0.23945999    0.58753956    0.08390000
opls_145-38    C    0.63455012    0.35096009    0.51309018    -0.09910000
opls_142-39    C    0.01465013    0.48253007    0.47594860    0.08250000
opls_145-40    C    0.15804999    0.57775011    0.45610076    0.14960000
opls_145-41    C    0.12724026    0.59192023    0.56047054    -0.23050000
opls_145-42    C    0.08058013    0.56137999    0.56355848    -0.22130000
opls_145-43    C    0.06368015    0.51573024    0.46447911    0.02400000
opls_145-44    C    0.09423008    0.50146009    0.35697024    -0.22130000
opls_145-45    C    0.14089012    0.53214022    0.34874852    -0.23050000
opls_280-46    C    0.38173981    0.70077993    0.24388006    0.22750000
opls_142-47    C    0.24103985    0.60004990    0.37149890    0.08390000
opls_145-48    C    0.34776014    0.71571008    0.29055078    -0.09600000
opls_280-49    C    0.68413009    0.38244011    0.46835981    0.22750000
opls_145-50    C    0.93705014    0.46613005    0.56411150    0.15420000
opls_145-51    C    0.91761017    0.42062019    0.67957037    -0.23050000
opls_145-52    C    0.87054021    0.39353022    0.71286002    -0.23050000
opls_145-53    C    0.84189999    0.41109999    0.63138126    0.14960000
opls_145-54    C    0.86157984    0.45668996    0.51432088    -0.23050000
opls_145-55    C    0.90870998    0.48392021    0.48668926    -0.23050000
opls_142-56    C    0.76053999    0.39533008    0.58753956    0.08390000
opls_144-57    H    0.55287999    0.55642001    0.42395870    0.09800000
opls_146-58    H    0.42659982    0.48444990    0.64873893    0.20890000
opls_146-59    H    0.53350009    0.61540012    0.27583991    0.20890000
opls_146-60    H    0.48033014    0.64318996    0.25575872    0.20890000
opls_144-61    H    0.43478015    0.66804007    0.39506122    0.09800000
opls_146-62    H    0.48735030    0.86053031    0.64217946    0.20890000
opls_146-63    H    0.59382998    0.53239012    0.75391107    0.20890000
opls_146-64    H    0.52822011    0.36945011    0.44194930    0.20890000
opls_146-65    H    0.48103009    0.40428994    0.39885881    0.20890000
opls_144-66    H    0.56910010    0.33998995    0.60839114    0.09800000
opls_146-67    H    0.50236002    0.14367002    0.80524886    0.20890000
opls_910-68    H    0.35742990    0.57272996    0.56607103    0.24990000
opls_910-69    H    0.65001020    0.43242013    0.79023112    0.24990000
opls_144-70    H    0.44357990    0.99646006    0.42395870    0.09800000
opls_146-71    H    0.51554999    0.94215017    0.64873893    0.20890000
opls_146-72    H    0.38460007    0.91809996    0.27583991    0.20890000
opls_146-73    H    0.35681004    0.83714010    0.25575872    0.20890000
opls_144-74    H    0.33196027    0.76674027    0.39506122    0.09800000
opls_146-75    H    0.13947004    0.62682023    0.64217946    0.20890000
opls_146-76    H    0.46761003    0.06143998    0.75391107    0.20890000
opls_146-77    H    0.63054988    0.15876996    0.44194930    0.20890000
opls_146-78    H    0.59571006    0.07673999    0.39885881    0.20890000
opls_144-79    H    0.66001009    0.22911000    0.60839114    0.09800000
opls_146-80    H    0.85632984    0.35869001    0.80524886    0.20890000
opls_910-81    H    0.42727016    0.78470022    0.56607103    0.24990000
opls_910-82    H    0.56757988    0.21758986    0.79023112    0.24990000
opls_144-83    H    0.00354011    0.44711993    0.42395870    0.09800000
opls_146-84    H    0.05784986    0.57339993    0.64873893    0.20890000
opls_146-85    H    0.08189984    0.46649992    0.27583991    0.20890000
opls_146-86    H    0.16285982    0.51966994    0.25575872    0.20890000
opls_144-87    H    0.23326010    0.56522004    0.39506122    0.09800000
opls_146-88    H    0.37318004    0.51265023    0.64217946    0.20890000
opls_146-89    H    0.93855999    0.40616991    0.75391107    0.20890000
opls_146-90    H    0.84123001    0.47177993    0.44194930    0.20890000
opls_146-91    H    0.92326018    0.51897007    0.39885881    0.20890000
opls_144-92    H    0.77089014    0.43090005    0.60839114    0.09800000
opls_146-93    H    0.64131014    0.49763998    0.80524886    0.20890000
opls_910-94    H    0.21530013    0.64257021    0.56607103    0.24990000
opls_910-95    H    0.78240993    0.34999002    0.79023112    0.24990000
opls_238-96    N    0.38957000    0.59550003    0.46035866    -0.32960000
opls_238-97    N    0.61812987    0.41166992    0.67022025    -0.32960000
opls_750-98    N    0.50440004    0.48966016    0.53616980    -0.22740000
opls_238-99    N    0.40450013    0.79407018    0.46035866    -0.32960000
opls_238-100    N    0.58833007    0.20645989    0.67022025    -0.32960000
opls_750-101    N    0.51034011    0.01474004    0.53616980    -0.22740000
opls_238-102    N    0.20593006    0.61043018    0.46035866    -0.32960000
opls_238-103    N    0.79354005    0.38187018    0.67022025    -0.32960000
opls_750-104    N    0.98526005    0.49560018    0.53616980    -0.22740000
opls_281-105    O    0.42056005    0.72785994    0.14879008    -0.37020000
opls_281-106    O    0.57813016    0.27654007    0.37651120    -0.37020000
opls_281-107    O    0.27214011    0.69270008    0.14879008    -0.37020000
opls_281-108    O    0.72346008    0.30158987    0.37651120    -0.37020000
opls_281-109    O    0.30729984    0.57943998    0.14879008    -0.37020000
opls_281-110    O    0.69841009    0.42187006    0.37651120    -0.37020000
