#======================================================================
# Crystal Data Generated By AuToFF
#----------------------------------------------------------------------

data_AuToFF_phase_1

_cell_length_a                         41.0625
_cell_length_b                         17.0500
_cell_length_c                         3.9461
_cell_angle_alpha                      89.99
_cell_angle_beta                       89.99
_cell_angle_gamma                      90.17
_symmetry_space_group_name_H-M_alt     'P 1'
_symmetry_space_group_IT_number        1

loop_
_space_group_symop_operation_xyz
   'x, y, z'

loop_
   _atom_site_label
   _atom_site_type_symbol
   _atom_site_fract_x
   _atom_site_fract_y
   _atom_site_fract_z
   _atom_site_charge
opls_700-0    C    0.08725013    0.85062011    0.95734016    0.06250000
opls_145-1    C    0.07648999    0.78389986    0.13117002    -0.14000000
opls_145-2    C    0.09552013    0.71643015    0.14880008    -0.17400000
opls_145-3    C    0.12617995    0.71447963    0.00294975    0.18890000
opls_145-4    C    0.13698994    0.78006007    0.82102075    -0.16680000
opls_145-5    C    0.11763995    0.84739982    0.79791946    -0.12140000
opls_145-6    C    0.17725995    0.49653021    0.14699070    -0.11080000
opls_700-7    C    0.19408004    0.42668989    0.21443957    0.05510000
opls_145-8    C    0.22791013    0.42807009    0.23711006    -0.20430000
opls_700-9    C    0.24505002    0.49788969    0.18660956    0.05800000
opls_145-10    C    0.22797016    0.56718982    0.11951040    -0.07480000
opls_700-11    C    0.19408008    0.56719014    0.09986062    0.05260000
opls_142-12    C    0.17684008    0.64139010    0.03037936    0.06700000
opls_142-13    C    0.28076010    0.49920989    0.18749905    0.07990000
opls_142-14    C    0.17701001    0.35124989    0.24857961    0.05950000
opls_700-15    C    0.08877991    0.13880026    0.13488001    0.06200000
opls_145-16    C    0.11766998    0.13904978    0.32184942    -0.12890000
opls_145-17    C    0.13710997    0.20619019    0.33552875    -0.18240000
opls_145-18    C    0.12780012    0.27466986    0.16416969    0.18970000
opls_145-19    C    0.09896985    0.27478022    0.98276019    -0.17570000
opls_145-20    C    0.08005994    0.20729002    0.96104001    -0.13750000
opls_700-21    C    0.43563003    0.40852996    0.04202124    0.02840000
opls_700-22    C    0.45724012    0.47161967    0.09950077    0.02940000
opls_700-23    C    0.48943993    0.46741980    0.98083931    0.01470000
opls_700-24    C    0.50054004    0.39860980    0.82163909    0.02940000
opls_700-25    C    0.48039993    0.33151974    0.80976914    0.02840000
opls_145-26    C    0.44787002    0.33847009    0.90848939    -0.10010000
opls_145-27    C    0.44773004    0.53820994    0.27973949    -0.19770000
opls_145-28    C    0.46861001    0.60078990    0.32601049    -0.17600000
opls_700-29    C    0.49331992    0.25317021    0.71229062    0.06690000
opls_700-30    C    0.40001005    0.41598020    0.09824890    0.06900000
opls_145-31    C    0.61665004    0.51874979    0.02873977    -0.17430000
opls_145-32    C    0.65001002    0.51164995    0.99247105    -0.16680000
opls_145-33    C    0.66776997    0.56954002    0.82371962    0.18950000
opls_145-34    C    0.65148009    0.63547966    0.70033958    -0.17720000
opls_145-35    C    0.61783993    0.64291019    0.73878006    -0.13020000
opls_145-36    C    0.52359000    0.22796983    0.83387902    -0.13760000
opls_145-37    C    0.53707002    0.15750999    0.72532120    -0.17700000
opls_916-38    C    0.52006005    0.10950992    0.50454119    0.22970000
opls_145-39    C    0.48899003    0.13129015    0.40022047    -0.18330000
opls_145-40    C    0.47562998    0.20263000    0.50338055    -0.13700000
opls_700-41    C    0.06893996    0.06596983    0.10137097    0.02890000
opls_700-42    C    0.03461011    0.06663001    0.10635057    0.02750000
opls_700-43    C    0.01722004    0.99884002    0.00970072    0.01910000
opls_700-44    C    0.03410004    0.92870011    0.93360026    0.02780000
opls_700-45    C    0.06826992    0.92542976    0.97104990    0.02730000
opls_145-46    C    0.08504000    0.99484960    0.04363042    -0.07480000
opls_145-47    C    0.01712012    0.13283020    0.21066116    -0.17740000
opls_145-48    C    0.98364001    0.13548998    0.18633081    -0.17600000
opls_700-49    C    0.91275011    0.14937989    0.04265984    0.06250000
opls_145-50    C    0.92351001    0.21610014    0.86882998    -0.14000000
opls_145-51    C    0.90447987    0.28356985    0.85119992    -0.17400000
opls_145-52    C    0.87382005    0.28551978    0.99705025    0.18880000
opls_145-53    C    0.86301006    0.21993993    0.17897925    -0.16080000
opls_145-54    C    0.88236005    0.15260018    0.20208054    -0.12140000
opls_145-55    C    0.82274005    0.50346979    0.85300930    -0.11080000
opls_700-56    C    0.80591996    0.57331011    0.78556043    0.05510000
opls_145-57    C    0.77209011    0.57192991    0.76288994    -0.20430000
opls_700-58    C    0.75494998    0.50210972    0.81339044    0.05800000
opls_145-59    C    0.77203009    0.43281018    0.88048960    -0.06990000
opls_700-60    C    0.80591992    0.43280986    0.90013938    0.05260000
opls_142-61    C    0.82315992    0.35860990    0.96962064    0.06700000
opls_142-62    C    0.71923990    0.50079011    0.81250095    0.07980000
opls_142-63    C    0.82298999    0.64875011    0.75142039    0.05950000
opls_700-64    C    0.91122009    0.86119974    0.86511999    0.06200000
opls_145-65    C    0.88233002    0.86094964    0.67815058    -0.12890000
opls_145-66    C    0.86289003    0.79380981    0.66447125    -0.18250000
opls_145-67    C    0.87220012    0.72533014    0.83583031    0.18970000
opls_145-68    C    0.90103015    0.72521978    0.01723981    -0.17570000
opls_145-69    C    0.91994006    0.79270998    0.03895999    -0.13750000
opls_700-70    C    0.56436997    0.59147004    0.95797876    0.02840000
opls_700-71    C    0.54275988    0.52837974    0.90049923    0.02940000
opls_700-72    C    0.51056007    0.53258020    0.01916069    0.01470000
opls_700-73    C    0.49945996    0.60139020    0.17836091    0.02940000
opls_700-74    C    0.51960007    0.66847967    0.19023086    0.02840000
opls_145-75    C    0.55212998    0.66152991    0.09151061    -0.10010000
opls_145-76    C    0.55226996    0.46179006    0.72026051    -0.19760000
opls_145-77    C    0.53138999    0.39921010    0.67398951    -0.17600000
opls_700-78    C    0.50668008    0.74682979    0.28770938    0.06690000
opls_700-79    C    0.59998995    0.58401980    0.90175110    0.06900000
opls_145-80    C    0.38334996    0.48124962    0.97126023    -0.17430000
opls_145-81    C    0.34998998    0.48835005    0.00752895    -0.16680000
opls_145-82    C    0.33223003    0.43045998    0.17628038    0.18960000
opls_145-83    C    0.34851991    0.36451975    0.29966042    -0.17720000
opls_145-84    C    0.38216007    0.35708981    0.26121994    -0.13010000
opls_145-85    C    0.47641000    0.77203017    0.16612098    -0.13760000
opls_145-86    C    0.46292998    0.84249001    0.27467880    -0.17700000
opls_916-87    C    0.47993995    0.89049008    0.49545881    0.22970000
opls_145-88    C    0.51100997    0.86870985    0.59977953    -0.18330000
opls_145-89    C    0.52437002    0.79737000    0.49661945    -0.13700000
opls_700-90    C    0.93106004    0.93402959    0.89862903    0.02890000
opls_700-91    C    0.96539013    0.93336999    0.89364943    0.02750000
opls_700-92    C    0.98277996    0.00115998    0.99029928    0.01910000
opls_700-93    C    0.96589996    0.07129989    0.06639974    0.02780000
opls_700-94    C    0.93173008    0.07457024    0.02895010    0.02730000
opls_145-95    C    0.91496000    0.00514982    0.95636958    -0.07480000
opls_145-96    C    0.98288012    0.86716980    0.78933884    -0.17740000
opls_145-97    C    0.01635999    0.86451002    0.81366919    -0.17600000
opls_750-98    N    0.14547998    0.64532001    0.05001901    -0.36310000
opls_750-99    N    0.14678999    0.34503968    0.16352094    -0.30750000
opls_750-100    N    0.29762008    0.43495005    0.20778997    -0.36300000
opls_237-101    N    0.46525015    0.96015971    0.62081042    -0.57120000
opls_750-102    N    0.85452002    0.35467999    0.94998099    -0.36310000
opls_750-103    N    0.85321001    0.65495973    0.83647906    -0.30750000
opls_750-104    N    0.70237992    0.56504995    0.79221003    -0.36320000
opls_237-105    N    0.53475010    0.03983971    0.37918958    -0.57120000
opls_146-106    H    0.05364997    0.78450975    0.26108056    0.23820000
opls_146-107    H    0.08712995    0.66627979    0.29007121    0.09560000
opls_146-108    H    0.15996008    0.77891993    0.69204024    0.10350000
opls_146-109    H    0.12632015    0.89690983    0.65412939    0.08440000
opls_144-110    H    0.19101999    0.69341014    0.98161983    0.09830000
opls_144-111    H    0.29257010    0.55537965    0.16137959    0.09650000
opls_144-112    H    0.19081995    0.30033017    0.32261980    0.09630000
opls_146-113    H    0.12486007    0.08778973    0.46323965    0.11240000
opls_146-114    H    0.15865989    0.20483011    0.48840881    0.09230000
opls_146-115    H    0.09195993    0.32685999    0.84611895    0.12040000
opls_146-116    H    0.05889988    0.20817003    0.80195890    0.10350000
opls_146-117    H    0.43184994    0.28874969    0.88194927    0.09690000
opls_146-118    H    0.42414004    0.54215970    0.39104939    0.23270000
opls_146-119    H    0.46035999    0.64843982    0.48259041    0.09460000
opls_146-120    H    0.60388002    0.47277012    0.15718051    0.08670000
opls_146-121    H    0.66179995    0.46197003    0.10676871    0.10450000
opls_146-122    H    0.66501994    0.68068981    0.57230937    0.22070000
opls_146-123    H    0.60573007    0.69398009    0.63850891    0.11610000
opls_146-124    H    0.53687000    0.26305971    0.01321051    0.09360000
opls_146-125    H    0.56065000    0.13984012    0.81510099    0.09130000
opls_146-126    H    0.47569994    0.09417992    0.22953042    0.10350000
opls_146-127    H    0.45207991    0.21943024    0.40992119    0.09250000
opls_909-128    H    0.44232014    0.97750011    0.54046020    0.27600000
opls_909-129    H    0.47706013    0.99398973    0.80095031    0.27200000
opls_146-130    H    0.11117007    0.99347015    0.05580953    0.09360000
opls_146-131    H    0.02910004    0.18347024    0.31433060    0.09360000
opls_146-132    H    0.97185012    0.18856986    0.26548998    0.09360000
opls_146-133    H    0.15112009    0.49579965    0.12906921    0.08380000
opls_146-134    H    0.24100005    0.37439017    0.28684017    0.11290000
opls_146-135    H    0.24113005    0.62121008    0.07908061    0.11020000
opls_146-136    H    0.94635003    0.21548966    0.73891944    0.23830000
opls_146-137    H    0.91287005    0.33372021    0.70992879    0.09560000
opls_146-138    H    0.84003992    0.22108007    0.30795976    0.10350000
opls_146-139    H    0.87368009    0.10309017    0.34587061    0.08440000
opls_144-140    H    0.80898001    0.30658986    0.01838017    0.09830000
opls_144-141    H    0.70742990    0.44461977    0.83862041    0.09650000
opls_144-142    H    0.80918005    0.69966983    0.67738020    0.09630000
opls_146-143    H    0.87514017    0.91220969    0.53676035    0.11240000
opls_146-144    H    0.84134011    0.79516989    0.51159119    0.09230000
opls_146-145    H    0.90804007    0.67314001    0.15388105    0.12040000
opls_146-146    H    0.94110012    0.79182997    0.19804110    0.10350000
opls_146-147    H    0.56815006    0.71124972    0.11805073    0.09680000
opls_146-148    H    0.57585995    0.45783971    0.60895061    0.23280000
opls_146-149    H    0.53964001    0.35156018    0.51740959    0.09460000
opls_146-150    H    0.39611998    0.52722988    0.84281949    0.08670000
opls_146-151    H    0.33820005    0.53802997    0.89322876    0.10450000
opls_146-152    H    0.33498006    0.31931019    0.42769063    0.22070000
opls_146-153    H    0.39426993    0.30601991    0.36149109    0.11620000
opls_146-154    H    0.46313000    0.73693970    0.98678949    0.09350000
opls_146-155    H    0.43935000    0.86015988    0.18489901    0.09130000
opls_146-156    H    0.52430006    0.90582008    0.77046958    0.10350000
opls_146-157    H    0.54792009    0.78056976    0.59007881    0.09250000
opls_909-158    H    0.55767986    0.02249989    0.45953980    0.27600000
opls_909-159    H    0.52293987    0.00601027    0.19904969    0.27200000
opls_146-160    H    0.88882993    0.00652985    0.94419047    0.09360000
opls_146-161    H    0.97089996    0.81652976    0.68566940    0.09360000
opls_146-162    H    0.02815013    0.81143014    0.73451002    0.09360000
opls_146-163    H    0.84887991    0.50419976    0.87093079    0.08380000
opls_146-164    H    0.75899995    0.62560983    0.71315983    0.11290000
opls_146-165    H    0.75886995    0.37878992    0.92091939    0.11020000
