#======================================================================
# Crystal Data Generated By AuToFF
#----------------------------------------------------------------------

data_AuToFF_phase_1

_cell_length_a                         30.5200
_cell_length_b                         30.5200
_cell_length_c                         3.7300
_cell_angle_alpha                      90.00
_cell_angle_beta                       90.00
_cell_angle_gamma                      120.00
_symmetry_space_group_name_H-M_alt     'P 1'
_symmetry_space_group_IT_number        1

loop_
_space_group_symop_operation_xyz
   'x, y, z'

loop_
   _atom_site_label
   _atom_site_type_symbol
   _atom_site_fract_x
   _atom_site_fract_y
   _atom_site_fract_z
   _atom_site_charge
opls_750-0    N    0.48594003    0.97434991    0.50000000    -0.13800000
opls_641-1    N    0.37326989    0.65898998    0.50000000    -0.46180000
opls_750-2    N    0.02564973    0.51158976    0.50000000    -0.13800000
opls_641-3    N    0.34100981    0.71427977    0.50000000    -0.46180000
opls_750-4    N    0.48841005    0.51405995    0.50000000    -0.13800000
opls_641-5    N    0.28571979    0.62672988    0.50000000    -0.46180000
opls_750-6    N    0.51405997    0.02565009    0.50000000    -0.13800000
opls_641-7    N    0.62673011    0.34101002    0.50000000    -0.46180000
opls_750-8    N    0.97435008    0.48840987    0.50000000    -0.13800000
opls_641-9    N    0.65899001    0.28571985    0.50000000    -0.46180000
opls_750-10    N    0.51158995    0.48594005    0.50000000    -0.13800000
opls_641-11    N    0.71428002    0.37326975    0.50000000    -0.46180000
opls_142-12    C    0.51384985    0.95315972    0.50000000    -0.00080000
opls_145-13    C    0.43913997    0.86844967    0.50000000    -0.17710000
opls_145-14    C    0.41667001    0.81684985    0.50000000    -0.20190000
opls_166-15    C    0.44620978    0.79421969    0.50000000    0.31460000
opls_145-16    C    0.49833973    0.82427973    0.50000000    -0.20160000
opls_145-17    C    0.52001009    0.87599986    0.50000000    -0.15710000
opls_700-18    C    0.40840007    0.50900000    0.50000000    0.06890000
opls_642-19    C    0.37883993    0.70494985    0.50000000    0.63540000
opls_142-20    C    0.04684002    0.56068987    0.50000000    -0.00080000
opls_145-21    C    0.13155003    0.57068983    0.50000000    -0.17710000
opls_145-22    C    0.18314980    0.59981991    0.50000000    -0.20190000
opls_166-23    C    0.20578000    0.65198989    0.50000000    0.31460000
opls_145-24    C    0.17571990    0.67405973    0.50000000    -0.20160000
opls_145-25    C    0.12400003    0.64400990    0.50000000    -0.15710000
opls_700-26    C    0.49100011    0.89939995    0.50000000    0.06890000
opls_642-27    C    0.29504977    0.67388985    0.50000000    0.63540000
opls_142-28    C    0.43930994    0.48615003    0.50000000    -0.00080000
opls_145-29    C    0.42930995    0.56085974    0.50000000    -0.17710000
opls_145-30    C    0.40018000    0.58332987    0.50000000    -0.20190000
opls_166-31    C    0.34801003    0.55379004    0.50000000    0.31460000
opls_145-32    C    0.32593999    0.50165979    0.50000000    -0.20160000
opls_145-33    C    0.35599002    0.47998986    0.50000000    -0.15710000
opls_700-34    C    0.10060015    0.59160005    0.50000000    0.06890000
opls_642-35    C    0.32611010    0.62115992    0.50000000    0.63540000
opls_142-36    C    0.48614996    0.04683990    0.50000000    -0.00080000
opls_145-37    C    0.56085984    0.13154995    0.50000000    -0.17710000
opls_145-38    C    0.58332999    0.18315015    0.50000000    -0.20190000
opls_166-39    C    0.55379003    0.20577993    0.50000000    0.31460000
opls_145-40    C    0.50166008    0.17571989    0.50000000    -0.20160000
opls_145-41    C    0.47998991    0.12400014    0.50000000    -0.15710000
opls_700-42    C    0.59159993    0.49100000    0.50000000    0.06890000
opls_642-43    C    0.62115988    0.29504977    0.50000000    0.63530000
opls_142-44    C    0.95315979    0.43930975    0.50000000    -0.00080000
opls_145-45    C    0.86844978    0.42930979    0.50000000    -0.17710000
opls_145-46    C    0.81685020    0.40018009    0.50000000    -0.20190000
opls_166-47    C    0.79422000    0.34801011    0.50000000    0.31460000
opls_145-48    C    0.82427991    0.32593990    0.50000000    -0.20160000
opls_145-49    C    0.87599997    0.35599010    0.50000000    -0.15710000
opls_700-50    C    0.50899989    0.10060005    0.50000000    0.06890000
opls_642-51    C    0.70495004    0.32610977    0.50000000    0.63540000
opls_142-52    C    0.56069006    0.51384997    0.50000000    -0.00080000
opls_145-53    C    0.57068986    0.43913988    0.50000000    -0.17710000
opls_145-54    C    0.59981981    0.41666976    0.50000000    -0.20190000
opls_166-55    C    0.65198997    0.44620996    0.50000000    0.31460000
opls_145-56    C    0.67405983    0.49833983    0.50000000    -0.20160000
opls_145-57    C    0.64400980    0.52000976    0.50000000    -0.15710000
opls_700-58    C    0.89939985    0.40839995    0.50000000    0.06890000
opls_642-59    C    0.67388990    0.37884008    0.50000000    0.63540000
opls_180-60    O    0.42798974    0.74234973    0.50000000    -0.20760000
opls_180-61    O    0.25764996    0.68564002    0.50000000    -0.20760000
opls_180-62    O    0.31435978    0.57200987    0.50000000    -0.20760000
opls_180-63    O    0.57201007    0.25764989    0.50000000    -0.20760000
opls_180-64    O    0.74235004    0.31435998    0.50000000    -0.20760000
opls_180-65    O    0.68564003    0.42798975    0.50000000    -0.20760000
opls_144-66    H    0.55552984    0.97516978    0.50000000    0.06500000
opls_146-67    H    0.41546004    0.88527984    0.50000000    0.09930000
opls_146-68    H    0.37615979    0.79453977    0.50000000    0.11570000
opls_146-69    H    0.52234989    0.80773975    0.50000000    0.12520000
opls_146-70    H    0.56095985    0.89897999    0.50000000    0.12110000
opls_144-71    H    0.02483001    0.58035988    0.50000000    0.06500000
opls_146-72    H    0.11472007    0.53017998    0.50000000    0.09930000
opls_146-73    H    0.20545994    0.58161976    0.50000000    0.11570000
opls_146-74    H    0.19226014    0.71461006    0.50000000    0.12520000
opls_146-75    H    0.10102015    0.66198002    0.50000000    0.12110000
opls_144-76    H    0.41963996    0.44446996    0.50000000    0.06500000
opls_146-77    H    0.46982003    0.58453980    0.50000000    0.09930000
opls_146-78    H    0.41837989    0.62383972    0.50000000    0.11570000
opls_146-79    H    0.28538978    0.47764981    0.50000000    0.12520000
opls_146-80    H    0.33802000    0.43903999    0.50000000    0.12110000
opls_144-81    H    0.44446997    0.02482984    0.50000000    0.06500000
opls_146-82    H    0.58453996    0.11472016    0.50000000    0.09930000
opls_146-83    H    0.62384002    0.20545986    0.50000000    0.11570000
opls_146-84    H    0.47764992    0.19225988    0.50000000    0.12520000
opls_146-85    H    0.43904015    0.10102001    0.50000000    0.12110000
opls_144-86    H    0.97516981    0.41963974    0.50000000    0.06500000
opls_146-87    H    0.88527993    0.46982002    0.50000000    0.09930000
opls_146-88    H    0.79453987    0.41837986    0.50000000    0.11570000
opls_146-89    H    0.80773986    0.28538994    0.50000000    0.12520000
opls_146-90    H    0.89897985    0.33801998    0.50000000    0.12110000
opls_144-91    H    0.58036004    0.55553004    0.50000000    0.06500000
opls_146-92    H    0.53017978    0.41545982    0.50000000    0.09930000
opls_146-93    H    0.58161993    0.37615990    0.50000000    0.11570000
opls_146-94    H    0.71461003    0.52234981    0.50000000    0.12520000
opls_146-95    H    0.66198000    0.56096001    0.50000000    0.12540000
