#======================================================================
# Crystal Data Generated By AuToFF
#----------------------------------------------------------------------

data_AuToFF_phase_1

_cell_length_a                         33.0300
_cell_length_b                         33.0300
_cell_length_c                         4.2000
_cell_angle_alpha                      90.00
_cell_angle_beta                       90.00
_cell_angle_gamma                      120.00
_symmetry_space_group_name_H-M_alt     'P 1'
_symmetry_space_group_IT_number        1

loop_
_space_group_symop_operation_xyz
   'x, y, z'

loop_
   _atom_site_label
   _atom_site_type_symbol
   _atom_site_fract_x
   _atom_site_fract_y
   _atom_site_fract_z
   _atom_site_charge
opls_526-0    H    0.28380013    0.80217005    0.49771905    0.10830000
opls_146-1    H    0.36621985    0.85559986    0.59533095    0.11920000
opls_146-2    H    0.33326989    0.95096001    0.08475952    0.11380000
opls_526-3    H    0.25098986    0.89874993    0.00005000    0.09670000
opls_526-4    H    0.14579998    0.67398991    0.56396905    0.10340000
opls_146-5    H    0.16950996    0.61709985    0.67100952    0.11670000
opls_146-6    H    0.29554998    0.72292012    0.13310000    0.10810000
opls_526-7    H    0.27279992    0.78064012    0.03901905    0.11210000
opls_526-8    H    0.93155996    0.59480990    0.32488095    0.06790000
opls_146-9    H    0.90641011    0.51206999    0.32080952    0.12240000
opls_146-10    H    0.02444005    0.53857007    0.72704048    0.11670000
opls_526-11    H    0.05033976    0.62101981    0.71853095    0.10870000
opls_526-12    H    0.93336014    0.72560009    0.26530000    0.09490000
opls_146-13    H    0.85210997    0.70136012    0.17545000    0.06630000
opls_146-14    H    0.83080002    0.57565998    0.70321905    0.08640000
opls_526-15    H    0.91116005    0.59812997    0.78183095    0.13270000
opls_526-16    H    0.08380999    0.96099993    0.89385000    0.09550000
opls_146-17    H    0.02750975    0.98669979    0.94126905    0.07900000
opls_146-18    H    0.92532010    0.85311007    0.33674048    0.11380000
opls_526-19    H    0.98121981    0.82555982    0.30894048    0.14910000
opls_526-20    H    0.20363013    0.94552002    0.79869048    0.07600000
opls_146-21    H    0.26269007    0.02445008    0.92060000    0.11680000
opls_146-22    H    0.16639994    0.04017015    0.53933095    0.08640000
opls_526-23    H    0.10628011    0.96012001    0.43356905    0.07440000
opls_144-24    H    0.87934992    0.87877008    0.99940952    0.07190000
opls_144-25    H    0.31191003    0.09399989    0.06041905    0.07120000
opls_144-26    H    0.40863006    0.00132006    0.87073095    0.07060000
opls_144-27    H    0.19470990    0.57061992    0.79003095    0.07120000
opls_144-28    H    0.99559016    0.46377009    0.74716905    0.07160000
opls_144-29    H    0.77698977    0.67200982    0.09160952    0.07120000
opls_146-30    H    0.46354015    0.94464010    0.36386905    0.06650000
opls_146-31    H    0.54159996    0.98533009    0.58091905    0.12860000
opls_146-32    H    0.56683013    0.11223004    0.09300000    0.11380000
opls_146-33    H    0.48756018    0.07177007    0.89414048    0.11650000
opls_146-34    H    0.37856991    0.17117010    0.96020000    0.12240000
opls_146-35    H    0.41938996    0.25539996    0.01650000    0.07230000
opls_146-36    H    0.31067986    0.24342995    0.66364048    0.11140000
opls_146-37    H    0.27007007    0.15960003    0.60104048    0.07280000
opls_146-38    H    0.60156994    0.99814017    0.28221905    0.11650000
opls_146-39    H    0.67863007    0.02314994    0.09356905    0.07660000
opls_146-40    H    0.71345993    0.16809999    0.19125952    0.08000000
opls_146-41    H    0.63502020    0.14263016    0.37205000    0.11140000
opls_146-42    H    0.45930994    0.32733015    0.26400952    0.08000000
opls_146-43    H    0.48515992    0.40724990    0.11948095    0.07280000
opls_146-44    H    0.34159006    0.37852012    0.17985952    0.11650000
opls_146-45    H    0.31668986    0.30008998    0.33986905    0.07230000
opls_146-46    H    0.84459016    0.15771013    0.90676905    0.07660000
opls_146-47    H    0.89529981    0.23701984    0.74289048    0.11920000
opls_146-48    H    0.77476007    0.25288011    0.55239048    0.11920000
opls_146-49    H    0.72352990    0.17266985    0.71371905    0.06650000
opls_146-50    H    0.72199008    0.03369013    0.64278095    0.11440000
opls_146-51    H    0.75294994    0.98065011    0.69966905    0.07860000
opls_146-52    H    0.84756005    0.07182006    0.43943095    0.09530000
opls_146-53    H    0.81475011    0.12240000    0.38134048    0.07230000
opls_146-54    H    0.48715989    0.42584991    0.65766905    0.11650000
opls_146-55    H    0.56669984    0.47878994    0.50234048    0.07860000
opls_146-56    H    0.55188997    0.59568003    0.82724048    0.06790000
opls_146-57    H    0.47470981    0.54315986    0.99890000    0.10400000
opls_146-58    H    0.43363997    0.51081007    0.41678095    0.08560000
opls_146-59    H    0.37955990    0.53981007    0.45954048    0.11630000
opls_146-60    H    0.29365005    0.44242998    0.71530000    0.07600000
opls_146-61    H    0.35020002    0.41609002    0.66880000    0.10440000
opls_146-62    H    0.35035986    0.57842000    0.35428095    0.09530000
opls_146-63    H    0.30865988    0.61906000    0.26965000    0.11460000
opls_146-64    H    0.20272003    0.50165986    0.73059048    0.11650000
opls_146-65    H    0.24349989    0.45934007    0.81751905    0.07080000
opls_146-66    H    0.92945003    0.30680983    0.41499048    0.07230000
opls_146-67    H    0.98101988    0.38948995    0.52900952    0.07860000
opls_146-68    H    0.86899990    0.39315996    0.04650000    0.07100000
opls_146-69    H    0.81740988    0.31131991    0.93406905    0.07230000
opls_146-70    H    0.77006988    0.93121998    0.84351905    0.09530000
opls_146-71    H    0.81112003    0.88785981    0.83949048    0.06790000
opls_146-72    H    0.92607011    0.00004999    0.36035000    0.11460000
opls_146-73    H    0.88747023    0.04427016    0.35625952    0.08890000
opls_146-74    H    0.63539990    0.52729994    0.39070952    0.06630000
opls_146-75    H    0.71684994    0.56598993    0.52685000    0.07280000
opls_146-76    H    0.69994006    0.66332003    0.12810952    0.11380000
opls_146-77    H    0.61826992    0.62441994    0.00429048    0.09530000
opls_145-78    C    0.00378988    0.55065999    0.85940952    -0.14680000
opls_523-79    C    0.01857000    0.59756992    0.85456905    -0.15730000
opls_523-80    C    0.91083997    0.69146983    0.15121905    -0.10480000
opls_145-81    C    0.86490000    0.67816997    0.09369048    -0.15230000
opls_145-82    C    0.83527993    0.63655985    0.93015952    0.23420000
opls_145-83    C    0.85343986    0.60823001    0.83315952    -0.14750000
opls_523-84    C    0.89910997    0.62043005    0.88964048    -0.12110000
opls_523-85    C    0.05023018    0.93705012    0.00650000    -0.12130000
opls_145-86    C    0.01791005    0.95145014    0.02510952    -0.15360000
opls_145-87    C    0.97279003    0.92189009    0.14220000    0.23370000
opls_145-88    C    0.96056013    0.87674000    0.24350952    -0.14710000
opls_523-89    C    0.99219008    0.86139014    0.22975952    -0.15080000
opls_523-90    C    0.19451006    0.96597986    0.96089048    -0.12840000
opls_145-91    C    0.22826006    0.01081985    0.03279048    -0.14780000
opls_145-92    C    0.21896997    0.03854001    0.23986905    0.22110000
opls_145-93    C    0.17409996    0.01912999    0.37340952    -0.15350000
opls_523-94    C    0.13960997    0.97420994    0.30656905    -0.11700000
opls_142-95    C    0.89750995    0.91523002    0.08319048    0.05720000
opls_142-96    C    0.29508991    0.10854010    0.21206905    0.08750000
opls_142-97    C    0.42403996    0.98029004    0.95230952    0.09100000
opls_142-98    C    0.22834996    0.58951009    0.91584048    0.09790000
opls_142-99    C    0.96075007    0.44740991    0.85778095    0.09120000
opls_142-100    C    0.76390000    0.64075006    0.94006905    0.08310000
opls_700-101    C    0.32065005    0.15829011    0.27226905    0.06860000
opls_700-102    C    0.46929988    0.00461006    0.10475952    0.06570000
opls_145-103    C    0.48565991    0.98189990    0.30689048    -0.10690000
opls_145-104    C    0.52949004    0.00539000    0.44080952    -0.11950000
opls_700-105    C    0.56159000    0.05224994    0.35496905    0.07590000
opls_145-106    C    0.54324993    0.07643991    0.17734048    -0.12120000
opls_145-107    C    0.49884007    0.05267014    0.05138095    -0.10690000
opls_145-108    C    0.36391992    0.18665001    0.12275000    -0.10580000
opls_145-109    C    0.38795003    0.23436994    0.16111905    -0.12110000
opls_700-110    C    0.36881987    0.25706996    0.34735000    0.07270000
opls_145-111    C    0.32665998    0.22778014    0.51494048    -0.11960000
opls_145-112    C    0.30328990    0.18020984    0.47346905    -0.10730000
opls_700-113    C    0.38570001    0.30615994    0.31468095    0.07430000
opls_700-114    C    0.61082004    0.06807000    0.34775952    0.07500000
opls_145-115    C    0.62645998    0.03592996    0.27786905    -0.11750000
opls_145-116    C    0.67034006    0.05052995    0.15493095    -0.15370000
opls_916-117    C    0.70282009    0.09822995    0.10584048    0.17770000
opls_145-118    C    0.68877010    0.13028014    0.20043095    -0.15880000
opls_145-119    C    0.64474982    0.11595983    0.32085952    -0.11950000
opls_145-120    C    0.43323012    0.33866006    0.24914048    -0.11640000
opls_145-121    C    0.44742007    0.38371995    0.15175952    -0.15880000
opls_916-122    C    0.41553015    0.39988016    0.11051905    0.18500000
opls_145-123    C    0.36858011    0.36839001    0.19314048    -0.16030000
opls_145-124    C    0.35418019    0.32361015    0.29626905    -0.11500000
opls_916-125    C    0.47484001    0.47867003    0.87199048    0.17820000
opls_916-126    C    0.39645989    0.46215987    0.03470000    0.18760000
opls_916-127    C    0.76626003    0.08174986    0.00835952    0.18330000
opls_916-128    C    0.77909983    0.15890993    0.84965000    0.17670000
opls_145-129    C    0.82799011    0.17787002    0.83234048    -0.15720000
opls_145-130    C    0.85735992    0.22257997    0.72053095    -0.12110000
opls_700-131    C    0.83967014    0.25255009    0.63593095    0.07390000
opls_145-132    C    0.79043001    0.23154000    0.61950952    -0.11940000
opls_145-133    C    0.76144005    0.18665001    0.72774048    -0.15210000
opls_521-134    C    0.07089004    0.73473981    0.88545000    0.07670000
opls_521-135    C    0.11776986    0.76032990    0.82325000    0.07620000
opls_521-136    C    0.14012999    0.80736988    0.84733095    0.07610000
opls_521-137    C    0.11571016    0.82935009    0.92115952    0.07630000
opls_521-138    C    0.06941989    0.80428998    0.98841905    0.07520000
opls_521-139    C    0.04690998    0.75644000    0.97348095    0.07520000
opls_521-140    C    0.11643997    0.89755992    0.04023095    0.09430000
opls_521-141    C    0.06924021    0.87313012    0.07349048    0.09200000
opls_145-142    C    0.74916985    0.04108993    0.82249048    -0.15380000
opls_145-143    C    0.76665017    0.01117015    0.85800952    -0.11690000
opls_700-144    C    0.80338002    0.02091990    0.07535000    0.07990000
opls_145-145    C    0.82001014    0.06216015    0.26035952    -0.11810000
opls_145-146    C    0.80161010    0.09116995    0.23004048    -0.14740000
opls_145-147    C    0.50178992    0.46326983    0.70774048    -0.16100000
opls_145-148    C    0.54650977    0.49403982    0.60130000    -0.11140000
opls_700-149    C    0.56822993    0.54270993    0.66333095    0.07420000
opls_145-150    C    0.53841996    0.55831010    0.78235952    -0.11850000
opls_145-151    C    0.49403992    0.52751005    0.89241905    -0.15880000
opls_145-152    C    0.40306998    0.49654988    0.25760952    -0.15340000
opls_145-153    C    0.37172999    0.51233009    0.28299048    -0.11960000
opls_700-154    C    0.33094987    0.49406988    0.09154048    0.07810000
opls_145-155    C    0.32361994    0.45760015    0.87866905    -0.11620000
opls_145-156    C    0.35588015    0.44297010    0.84654048    -0.15350000
opls_700-157    C    0.30145013    0.51483002    0.09065952    0.06800000
opls_700-158    C    0.61854003    0.57205010    0.68125000    0.07130000
opls_700-159    C    0.86851998    0.30220012    0.65554048    0.07170000
opls_700-160    C    0.82474001    0.99217999    0.09826905    0.07030000
opls_145-161    C    0.31724013    0.55998010    0.22305000    -0.11940000
opls_145-162    C    0.29376988    0.58374987    0.16873095    -0.11060000
opls_700-163    C    0.25241980    0.56418988    0.98775000    0.07190000
opls_145-164    C    0.23494010    0.51846996    0.87306905    -0.10840000
opls_145-165    C    0.25807998    0.49419993    0.92481905    -0.11940000
opls_145-166    C    0.91588015    0.32608001    0.54908095    -0.11810000
opls_145-167    C    0.94493001    0.37254001    0.61815000    -0.10880000
opls_700-168    C    0.92932993    0.39836014    0.79425000    0.06560000
opls_145-169    C    0.88273981    0.37492982    0.90249048    -0.10680000
opls_145-170    C    0.85285995    0.32882011    0.83303095    -0.11140000
opls_145-171    C    0.80435001    0.94677995    0.96039048    -0.11900000
opls_521-172    C    0.98000004    0.68468006    0.02215000    0.08810000
opls_521-173    C    0.00546003    0.66327004    0.97371905    0.09440000
opls_521-174    C    0.18864990    0.76358984    0.76238095    0.08910000
opls_521-175    C    0.21086992    0.81113008    0.76295952    0.09440000
opls_700-176    C    0.03875991    0.89100998    0.11010952    0.02880000
opls_700-177    C    0.14838003    0.94532984    0.09559048    0.03240000
opls_700-178    C    0.93079015    0.66423001    0.03833095    0.03020000
opls_700-179    C    0.99168016    0.61560010    0.00440952    0.04440000
opls_700-180    C    0.25893993    0.84406999    0.75024048    0.04250000
opls_700-181    C    0.20783999    0.73375990    0.77735000    0.03010000
opls_523-182    C    0.29379014    0.83479008    0.62491905    -0.11700000
opls_145-183    C    0.34053015    0.86493011    0.68200000    -0.15300000
opls_145-184    C    0.35582001    0.90676991    0.85135952    0.23720000
opls_145-185    C    0.32248002    0.91845990    0.95175952    -0.14780000
opls_523-186    C    0.27572990    0.88902989    0.89865000    -0.16580000
opls_523-187    C    0.17978993    0.68580994    0.68055952    -0.12440000
opls_145-188    C    0.19289008    0.65331996    0.74714048    -0.14710000
opls_145-189    C    0.23463003    0.66578989    0.90986905    0.21600000
opls_145-190    C    0.26300993    0.71255998    0.00159048    -0.14830000
opls_523-191    C    0.25100001    0.74592009    0.93539048    -0.11700000
opls_523-192    C    0.95191998    0.58308005    0.18653095    -0.11910000
opls_145-193    C    0.93806985    0.53634982    0.18800952    -0.15260000
opls_145-194    C    0.96269989    0.51884997    0.01944048    0.22790000
opls_145-195    C    0.82765995    0.92207013    0.95848095    -0.10840000
opls_700-196    C    0.87220011    0.94032999    0.09590000    0.07400000
opls_145-197    C    0.89170992    0.98432991    0.24375952    -0.11380000
opls_145-198    C    0.86912004    0.00950015    0.24630000    -0.11740000
opls_145-199    C    0.64904000    0.55776998    0.54939048    -0.11950000
opls_145-200    C    0.69548994    0.57957994    0.63106905    -0.10650000
opls_700-201    C    0.71550020    0.61798012    0.84096905    0.06760000
opls_145-202    C    0.68622998    0.63387988    0.95999048    -0.10510000
opls_145-203    C    0.63966012    0.61229996    0.88219048    -0.11690000
opls_520-204    N    0.13978993    0.87518992    0.94563095    -0.21180000
opls_520-205    N    0.04536015    0.82490014    0.06659048    -0.31000000
opls_520-206    N    0.00183020    0.73266009    0.04109048    -0.30450000
opls_520-207    N    0.05151007    0.68884999    0.88418095    -0.27020000
opls_520-208    N    0.14073003    0.73788998    0.76868095    -0.28870000
opls_520-209    N    0.18572017    0.83335011    0.81255952    -0.25270000
opls_750-210    N    0.94140994    0.93831005    0.15421905    -0.24150000
opls_750-211    N    0.25250000    0.08467000    0.31445952    -0.27050000
opls_750-212    N    0.40298010    0.93517002    0.93051905    -0.26750000
opls_750-213    N    0.24887999    0.63354987    0.98514048    -0.26490000
opls_750-214    N    0.94439012    0.47043995    0.00689048    -0.26640000
opls_750-215    N    0.78874011    0.62228009    0.85563095    -0.26540000
opls_239-216    N    0.42948989    0.44656984    0.00261905    -0.12700000
opls_239-217    N    0.74858010    0.11299005    0.97770952    -0.12400000
