#======================================================================
# Crystal Data Generated By AuToFF
#----------------------------------------------------------------------

data_AuToFF_phase_1

_cell_length_a                         23.0000
_cell_length_b                         27.3000
_cell_length_c                         6.7000
_cell_angle_alpha                      90.00
_cell_angle_beta                       90.00
_cell_angle_gamma                      90.00
_symmetry_space_group_name_H-M_alt     'P 1'
_symmetry_space_group_IT_number        1

loop_
_space_group_symop_operation_xyz
   'x, y, z'

loop_
   _atom_site_label
   _atom_site_type_symbol
   _atom_site_fract_x
   _atom_site_fract_y
   _atom_site_fract_z
   _atom_site_charge
opls_700-0    C    0.95904000    0.84666007    1.00000000    -0.03800000
opls_700-1    C    0.02072000    0.84709011    1.00000000    -0.03640000
opls_145-2    C    0.05449000    0.80405018    0.00000000    -0.24200000
opls_166-3    C    0.02219000    0.76095018    0.00000000    0.16260000
opls_166-4    C    0.96090000    0.76022015    0.00000000    0.15880000
opls_145-5    C    0.92704000    0.80257985    1.00000000    -0.21950000
opls_543-6    C    0.94070000    0.89770989    0.99998955    0.35830000
opls_543-7    C    0.03833000    0.89810000    1.00000000    0.35380000
opls_700-8    C    0.80813000    0.97392015    0.99998955    -0.03580000
opls_700-9    C    0.80812000    0.02600000    0.99998955    -0.03580000
opls_145-10    C    0.75644000    0.05370989    1.00000000    -0.25540000
opls_166-11    C    0.70581000    0.02579011    0.00000000    0.17380000
opls_166-12    C    0.70583000    0.97404982    1.00000000    0.17380000
opls_145-13    C    0.75649000    0.94616007    0.99998955    -0.25090000
opls_543-14    C    0.86862000    0.95870000    0.99998955    0.35980000
opls_543-15    C    0.86860000    0.04123993    0.99998955    0.36030000
opls_700-16    C    0.02072000    0.15286007    0.00000000    -0.03640000
opls_700-17    C    0.95904000    0.15329011    0.00000000    -0.03800000
opls_145-18    C    0.92704000    0.19736996    0.00000000    -0.21950000
opls_166-19    C    0.96090000    0.23973004    0.00000000    0.15880000
opls_166-20    C    0.02219000    0.23900000    0.00000000    0.16260000
opls_145-21    C    0.05449000    0.19590000    0.00000000    -0.24200000
opls_543-22    C    0.03834000    0.10183993    0.00000000    0.35380000
opls_543-23    C    0.94070000    0.10223993    1.00000000    0.35970000
opls_700-24    C    0.17091000    0.97392015    0.00000000    -0.03650000
opls_700-25    C    0.17093000    0.02600000    0.00001045    -0.03650000
opls_145-26    C    0.22254000    0.05376996    0.00000000    -0.25190000
opls_166-27    C    0.27310000    0.02577985    1.00000000    0.17630000
opls_166-28    C    0.27308000    0.97404982    1.00000000    0.17630000
opls_145-29    C    0.22249000    0.94610000    1.00000000    -0.25130000
opls_543-30    C    0.11050000    0.95876996    0.00000000    0.35760000
opls_543-31    C    0.11051000    0.04116007    0.00001045    0.35770000
opls_145-32    C    0.42907000    0.99986996    0.99998955    -0.22580000
opls_145-33    C    0.45927000    0.95534982    0.00001045    -0.04250000
opls_145-34    C    0.51963000    0.95537985    0.00001045    -0.04370000
opls_145-35    C    0.54984000    0.99986996    0.00000000    -0.22590000
opls_145-36    C    0.51963000    0.04436007    0.99998955    -0.04370000
opls_145-37    C    0.45927000    0.04439011    0.99998955    -0.04250000
opls_145-38    C    0.99448000    0.37096996    1.00000000    -0.22550000
opls_145-39    C    0.94199000    0.39626007    1.00000000    -0.09600000
opls_700-40    C    0.94058000    0.44773993    1.00000000    0.07530000
opls_700-41    C    0.99454000    0.47383004    1.00000000    -0.00180000
opls_700-42    C    0.04844000    0.44765018    1.00000000    0.07610000
opls_145-43    C    0.04723000    0.39614982    1.00000000    -0.09300000
opls_145-44    C    0.88711000    0.47493993    1.00000000    -0.13240000
opls_700-45    C    0.99454000    0.52613993    1.00000000    -0.00180000
opls_700-46    C    0.94058000    0.55223004    1.00000000    0.07530000
opls_145-47    C    0.88711000    0.52503004    1.00000000    -0.13240000
opls_145-48    C    0.94199000    0.60370989    0.00000000    -0.09590000
opls_145-49    C    0.99448000    0.62899011    0.00000000    -0.22550000
opls_145-50    C    0.04723000    0.60380989    0.00000000    -0.09670000
opls_700-51    C    0.04844000    0.55232015    1.00000000    0.07610000
opls_145-52    C    0.10188000    0.52502015    1.00000000    -0.13240000
opls_145-53    C    0.10187000    0.47494982    1.00000000    -0.13240000
opls_700-54    C    0.02260000    0.84709011    0.50000000    -0.03640000
opls_700-55    C    0.08428000    0.84666007    0.50000000    -0.03630000
opls_145-56    C    0.11627000    0.80257985    0.50000000    -0.21950000
opls_166-57    C    0.08242000    0.76022015    0.50000000    0.15850000
opls_166-58    C    0.02113000    0.76095018    0.50000000    0.16260000
opls_145-59    C    0.98882000    0.80405018    0.50000000    -0.24200000
opls_543-60    C    0.00498000    0.89810000    0.50000000    0.35390000
opls_543-61    C    0.10261000    0.89770989    0.50000000    0.35830000
opls_700-62    C    0.87240000    0.97392015    0.49998955    -0.03650000
opls_700-63    C    0.87239000    0.02600000    0.50000000    -0.03650000
opls_145-64    C    0.82077000    0.05376996    0.50000000    -0.25190000
opls_166-65    C    0.77021000    0.02579011    0.50000000    0.17630000
opls_166-66    C    0.77023000    0.97404982    0.50000000    0.17630000
opls_145-67    C    0.82082000    0.94610000    0.49998955    -0.25130000
opls_543-68    C    0.93281000    0.95876996    0.49998955    0.35760000
opls_543-69    C    0.93280000    0.04116007    0.50000000    0.35770000
opls_700-70    C    0.08428000    0.15329011    0.50000000    -0.03800000
opls_700-71    C    0.02259000    0.15286007    0.50000000    -0.03640000
opls_145-72    C    0.98883000    0.19590000    0.50000000    -0.26150000
opls_166-73    C    0.02113000    0.23900000    0.50000000    0.16260000
opls_166-74    C    0.08242000    0.23973004    0.50000000    0.15850000
opls_145-75    C    0.11627000    0.19736996    0.50000000    -0.22060000
opls_543-76    C    0.10262000    0.10223993    0.50001045    0.35990000
opls_543-77    C    0.00498000    0.10183993    0.50000000    0.35380000
opls_700-78    C    0.23518000    0.97392015    0.50000000    -0.03580000
opls_700-79    C    0.23520000    0.02600000    0.50000000    -0.03580000
opls_145-80    C    0.28688000    0.05370989    0.50000000    -0.25540000
opls_166-81    C    0.33751000    0.02579011    0.50000000    0.17480000
opls_166-82    C    0.33749000    0.97404982    0.49998955    0.17380000
opls_145-83    C    0.28683000    0.94616007    0.49998955    -0.25550000
opls_543-84    C    0.17470000    0.95870000    0.50000000    0.35980000
opls_543-85    C    0.17471000    0.04123993    0.50001045    0.35950000
opls_145-86    C    0.49347000    0.99986996    0.49998955    -0.22590000
opls_145-87    C    0.52368000    0.95537985    0.50000000    -0.04370000
opls_145-88    C    0.58404000    0.95534982    0.50001045    -0.04250000
opls_145-89    C    0.61424000    0.99986996    0.50000000    -0.22580000
opls_145-90    C    0.58404000    0.04439011    0.49998955    -0.04250000
opls_145-91    C    0.52368000    0.04436007    0.49998060    -0.04370000
opls_145-92    C    0.04884000    0.37096996    0.50000000    -0.22560000
opls_145-93    C    0.99609000    0.39614982    0.50000000    -0.09300000
opls_700-94    C    0.99488000    0.44765018    0.50000000    0.07610000
opls_700-95    C    0.04878000    0.47383004    0.50000000    -0.00180000
opls_700-96    C    0.10273000    0.44773993    0.50000000    0.07530000
opls_145-97    C    0.10133000    0.39626007    0.50000000    -0.09610000
opls_145-98    C    0.94144000    0.47494982    0.50000000    -0.13240000
opls_700-99    C    0.04878000    0.52613993    0.50000000    -0.00140000
opls_700-100    C    0.99487000    0.55232015    0.50000000    0.07610000
opls_145-101    C    0.94144000    0.52502015    0.50000000    -0.11250000
opls_145-102    C    0.99608000    0.60380989    0.50000000    -0.09300000
opls_145-103    C    0.04884000    0.62899011    0.50000000    -0.22550000
opls_145-104    C    0.10133000    0.60370989    0.50000000    -0.08830000
opls_700-105    C    0.10274000    0.55223004    0.50000000    0.07530000
opls_145-106    C    0.15620000    0.52503004    0.50000000    -0.11250000
opls_145-107    C    0.15620000    0.47493993    0.50000000    -0.13240000
opls_146-108    H    0.10207000    0.80464982    0.00000000    0.12650000
opls_146-109    H    0.87946000    0.80177985    1.00000000    0.07060000
opls_146-110    H    0.75624000    0.09387985    1.00000000    0.09650000
opls_146-111    H    0.75634000    0.90600000    0.99998060    0.09340000
opls_146-112    H    0.87946000    0.19816996    0.00000000    0.07060000
opls_146-113    H    0.10207000    0.19530000    0.00000000    0.12650000
opls_146-114    H    0.22269000    0.09393993    0.00001045    0.09650000
opls_146-115    H    0.22259000    0.90593993    0.99998955    0.09340000
opls_146-116    H    0.43257000    0.92206007    0.00001940    0.08840000
opls_146-117    H    0.54631000    0.92206996    0.00001940    0.08980000
opls_146-118    H    0.54632000    0.07766996    0.99998955    0.08660000
opls_146-119    H    0.43256000    0.07766996    0.99998060    0.09590000
opls_146-120    H    0.90324000    0.62715018    0.00000000    0.08660000
opls_146-121    H    0.14321000    0.45480000    1.00000000    0.06700000
opls_146-122    H    0.14320000    0.54517985    1.00000000    0.11780000
opls_146-123    H    0.84580000    0.45473993    1.00000000    0.07730000
opls_146-124    H    0.90324000    0.37283004    1.00000000    0.08980000
opls_146-125    H    0.08660000    0.37346996    1.00000000    0.08980000
opls_146-126    H    0.84580000    0.54523004    1.00000000    0.07730000
opls_146-127    H    0.08659000    0.62650000    0.00000000    0.08740000
opls_146-128    H    0.16386000    0.80177985    0.50000000    0.10500000
opls_146-129    H    0.94125000    0.80464982    0.50000000    0.11320000
opls_146-130    H    0.82063000    0.09393993    0.50001045    0.09650000
opls_146-131    H    0.82073000    0.90593993    0.49998955    0.09340000
opls_146-132    H    0.94125000    0.19530000    0.50000000    0.12640000
opls_146-133    H    0.16385000    0.19816996    0.50000000    0.07060000
opls_146-134    H    0.28708000    0.09387985    0.50001045    0.09650000
opls_146-135    H    0.28698000    0.90600000    0.49998955    0.09340000
opls_146-136    H    0.49700000    0.92206996    0.50001045    0.08980000
opls_146-137    H    0.61075000    0.92206007    0.50001940    0.08980000
opls_146-138    H    0.61076000    0.07766996    0.49998955    0.08740000
opls_146-139    H    0.49699000    0.07766996    0.49997015    0.08650000
opls_146-140    H    0.95672000    0.62650000    0.50000000    0.08730000
opls_146-141    H    0.19751000    0.45473993    0.50000000    0.07730000
opls_146-142    H    0.19751000    0.54523004    0.50000000    0.07730000
opls_146-143    H    0.90011000    0.45480000    0.50000000    0.07150000
opls_146-144    H    0.95672000    0.37346996    0.50000000    0.08980000
opls_146-145    H    0.14008000    0.37283004    0.50000000    0.08980000
opls_146-146    H    0.90011000    0.54516996    0.50000000    0.07150000
opls_146-147    H    0.14007000    0.62715018    0.50000000    0.08980000
opls_750-148    N    0.88528000    0.91186996    0.99998955    -0.35510000
opls_750-149    N    0.88527000    0.08806996    1.00000000    -0.35520000
opls_750-150    N    0.09380000    0.08790000    0.00001045    -0.35680000
opls_750-151    N    0.09379000    0.91203993    0.00000000    -0.35680000
opls_542-152    N    0.98939000    0.92793004    1.00000000    -0.33480000
opls_542-153    N    0.90411000    0.99996996    0.99998955    -0.33440000
opls_542-154    N    0.98939000    0.07200989    0.00000000    -0.33470000
opls_542-155    N    0.07482000    0.99996996    0.00000000    -0.33470000
opls_750-156    N    0.94952000    0.91203993    0.49998955    -0.35690000
opls_750-157    N    0.94952000    0.08790000    0.50000000    -0.35520000
opls_750-158    N    0.15804000    0.08806996    0.50001045    -0.35510000
opls_750-159    N    0.15804000    0.91186996    0.50000000    -0.35510000
opls_542-160    N    0.05393000    0.92793004    0.50000000    -0.33470000
opls_542-161    N    0.96849000    0.99996996    0.50000000    -0.33470000
opls_542-162    N    0.05393000    0.07200989    0.50000000    -0.33470000
opls_542-163    N    0.13920000    0.99996996    0.50000000    -0.33440000
opls_167-164    O    0.04246000    0.71313004    0.00000000    -0.29900000
opls_167-165    O    0.94256000    0.71175018    0.00000000    -0.29280000
opls_167-166    O    0.64876000    0.04206007    0.00001045    -0.29450000
opls_167-167    O    0.64880000    0.95773993    0.00000000    -0.29520000
opls_167-168    O    0.94256000    0.28820000    0.00000000    -0.30150000
opls_167-169    O    0.04246000    0.28682015    0.00000000    -0.29460000
opls_167-170    O    0.33020000    0.04206007    1.00000000    -0.29450000
opls_167-171    O    0.33016000    0.95773993    0.99998955    -0.29450000
opls_167-172    O    0.10076000    0.71175018    0.50000000    -0.29280000
opls_167-173    O    0.00086000    0.71313004    0.50000000    -0.29900000
opls_167-174    O    0.71312000    0.04206007    0.50001045    -0.28990000
opls_167-175    O    0.71315000    0.95773993    0.50000000    -0.29450000
opls_167-176    O    0.00086000    0.28682015    0.50000000    -0.29460000
opls_167-177    O    0.10075000    0.28820000    0.50000000    -0.29280000
opls_167-178    O    0.39455000    0.04206007    0.49998955    -0.29610000
opls_167-179    O    0.39452000    0.95773993    0.49998955    -0.29520000
MOF2_B_2-180    B    0.99308000    0.31625018    0.00000000    0.63800000
MOF2_B_2-181    B    0.36423000    0.99989011    0.99998955    0.63800000
MOF2_B_2-182    B    0.99308000    0.68370989    0.00000000    0.63800000
MOF2_B_2-183    B    0.61469000    0.99989011    0.00000000    0.63790000
MOF2_B_2-184    B    0.05024000    0.31625018    0.50000000    0.63800000
MOF2_B_2-185    B    0.42862000    0.99989011    0.49998955    0.63800000
MOF2_B_2-186    B    0.05024000    0.68370989    0.50000000    0.63800000
MOF2_B_2-187    B    0.67908000    0.99989011    0.50001045    0.63790000
F2_Ni4+2-188    Ni    0.98938000    0.99996996    1.00000000    0.45040000
F2_Ni4+2-189    Ni    0.05393000    0.99996996    0.50000000    0.45040000
