#======================================================================
# Crystal Data Generated By AuToFF
#----------------------------------------------------------------------

data_AuToFF_phase_1

_cell_length_a                         23.1225
_cell_length_b                         23.1225
_cell_length_c                         3.3636
_cell_angle_alpha                      90.00
_cell_angle_beta                       90.00
_cell_angle_gamma                      90.00
_symmetry_space_group_name_H-M_alt     'P 1'
_symmetry_space_group_IT_number        1

loop_
_space_group_symop_operation_xyz
   'x, y, z'

loop_
   _atom_site_label
   _atom_site_type_symbol
   _atom_site_fract_x
   _atom_site_fract_y
   _atom_site_fract_z
   _atom_site_charge
MOF2_B_2-0    B    0.87291988    0.50000000    0.00000000    0.60310000
MOF2_B_2-1    B    0.12708012    0.50000000    0.00000000    0.60310000
MOF2_B_2-2    B    0.50000000    0.87291988    0.00000000    0.60310000
MOF2_B_2-3    B    0.50000000    0.12708012    0.00000000    0.60310000
opls_700-4    C    0.46937009    0.67932014    0.00000000    -0.03860000
opls_700-5    C    0.53061996    0.32067986    0.00000000    -0.03520000
opls_700-6    C    0.32067986    0.46937009    0.00000000    -0.03860000
opls_700-7    C    0.67932014    0.53061996    0.00000000    -0.03520000
opls_700-8    C    0.53061996    0.67932014    0.00000000    -0.03520000
opls_700-9    C    0.46937009    0.32067986    0.00000000    -0.03860000
opls_700-10    C    0.67932014    0.46937009    0.00000000    -0.03860000
opls_700-11    C    0.32067986    0.53061996    0.00000000    -0.03520000
opls_145-12    C    0.96992021    0.44749011    0.00000000    -0.04300000
opls_145-13    C    0.03007979    0.55250989    0.00000000    -0.04300000
opls_145-14    C    0.55250989    0.96992021    0.00000000    -0.04300000
opls_145-15    C    0.44749011    0.03007979    0.00000000    -0.04300000
opls_145-16    C    0.03007979    0.44749011    0.00000000    -0.04300000
opls_145-17    C    0.96992021    0.55250989    0.00000000    -0.04300000
opls_145-18    C    0.44749011    0.96992021    0.00000000    -0.04300000
opls_145-19    C    0.55250989    0.03007979    0.00000000    -0.04300000
opls_145-20    C    0.06100984    0.50000000    0.00000000    -0.23120000
opls_145-21    C    0.93899016    0.50000000    0.00000000    -0.23120000
opls_145-22    C    0.50000000    0.06100984    0.00000000    -0.23120000
opls_145-23    C    0.50000000    0.93899016    0.00000000    -0.23120000
opls_145-24    C    0.56185015    0.26875987    0.00000000    -0.22540000
opls_145-25    C    0.43814985    0.73124013    0.00000000    -0.22540000
opls_145-26    C    0.73124013    0.56185015    0.00000000    -0.22540000
opls_145-27    C    0.26875987    0.43814985    0.00000000    -0.22540000
opls_145-28    C    0.43814985    0.26875987    0.00000000    -0.22540000
opls_145-29    C    0.56185015    0.73124013    0.00000000    -0.22540000
opls_145-30    C    0.26875987    0.56185015    0.00000000    -0.22540000
opls_145-31    C    0.73124013    0.43814985    0.00000000    -0.22540000
opls_166-32    C    0.53050016    0.21749984    0.00000000    0.17840000
opls_166-33    C    0.46949984    0.78250016    0.00000000    0.17840000
opls_166-34    C    0.78250016    0.53050016    0.00000000    0.17840000
opls_166-35    C    0.21749984    0.46949984    0.00000000    0.17840000
opls_166-36    C    0.46949984    0.21749984    0.00000000    0.17840000
opls_166-37    C    0.53050016    0.78250016    0.00000000    0.17840000
opls_166-38    C    0.21749984    0.53050016    0.00000000    0.17840000
opls_166-39    C    0.78250016    0.46949984    0.00000000    0.17840000
opls_543-40    C    0.45156017    0.61920986    0.00000000    0.32550000
opls_543-41    C    0.54843983    0.38079014    0.00000000    0.32550000
opls_543-42    C    0.38079014    0.45156017    0.00000000    0.32560000
opls_543-43    C    0.61920986    0.54843983    0.00000000    0.32560000
opls_543-44    C    0.54843983    0.61920986    0.00000000    0.32560000
opls_543-45    C    0.45156017    0.38079014    0.00000000    0.32560000
opls_543-46    C    0.61920986    0.45156017    0.00000000    0.32560000
opls_543-47    C    0.38079014    0.54843983    0.00000000    0.32540000
opls_146-48    H    0.94620997    0.40703990    0.00000000    0.12220000
opls_146-49    H    0.05379003    0.59296010    0.00000000    0.12220000
opls_146-50    H    0.59296010    0.94620997    0.00000000    0.12220000
opls_146-51    H    0.40703990    0.05379003    0.00000000    0.12220000
opls_146-52    H    0.05379003    0.40703990    0.00000000    0.12220000
opls_146-53    H    0.94620997    0.59296010    0.00000000    0.12210000
opls_146-54    H    0.40703990    0.94620997    0.00000000    0.12220000
opls_146-55    H    0.59296010    0.05379003    0.00000000    0.12220000
opls_146-56    H    0.39102995    0.73049022    0.00000000    0.11180000
opls_146-57    H    0.60897005    0.26950978    0.00000000    0.11180000
opls_146-58    H    0.26950978    0.39102995    0.00000000    0.11180000
opls_146-59    H    0.73049022    0.60897005    0.00000000    0.11180000
opls_146-60    H    0.60897005    0.73049022    0.00000000    0.11170000
opls_146-61    H    0.39102995    0.26950978    0.00000000    0.11180000
opls_146-62    H    0.73049022    0.39102995    0.00000000    0.11180000
opls_146-63    H    0.26950978    0.60897005    0.00000000    0.11180000
opls_542-64    N    0.58345983    0.50000000    0.00000000    -0.35920000
opls_542-65    N    0.41654017    0.50000000    0.00000000    -0.35920000
opls_542-66    N    0.50000000    0.58345983    0.00000000    -0.35930000
opls_542-67    N    0.50000000    0.41654017    0.00000000    -0.35920000
opls_750-68    N    0.39680009    0.60319991    0.00000000    -0.36060000
opls_750-69    N    0.60319991    0.39680009    0.00000000    -0.36060000
opls_750-70    N    0.39680009    0.39680009    0.00000000    -0.36060000
opls_750-71    N    0.60319991    0.60319991    0.00000000    -0.36060000
F2_Ni4+2-72    Ni    0.50000000    0.50000000    0.00000000    0.41000000
opls_167-73    O    0.83730003    0.55009017    0.00000000    -0.30990000
opls_167-74    O    0.16269997    0.44990983    0.00000000    -0.31000000
opls_167-75    O    0.44990983    0.83730003    0.00000000    -0.30990000
opls_167-76    O    0.55009017    0.16269997    0.00000000    -0.30990000
opls_167-77    O    0.16269997    0.55009017    0.00000000    -0.30990000
opls_167-78    O    0.83730003    0.44990983    0.00000000    -0.30990000
opls_167-79    O    0.55009017    0.83730003    0.00000000    -0.30990000
opls_167-80    O    0.44990983    0.16269997    0.00000000    -0.30990000
