#======================================================================
# Crystal Data Generated By AuToFF
#----------------------------------------------------------------------

data_AuToFF_phase_1

_cell_length_a                         35.5129
_cell_length_b                         31.5434
_cell_length_c                         3.9844
_cell_angle_alpha                      90.00
_cell_angle_beta                       90.00
_cell_angle_gamma                      90.00
_symmetry_space_group_name_H-M_alt     'P 1'
_symmetry_space_group_IT_number        1

loop_
_space_group_symop_operation_xyz
   'x, y, z'

loop_
   _atom_site_label
   _atom_site_type_symbol
   _atom_site_fract_x
   _atom_site_fract_y
   _atom_site_fract_z
   _atom_site_charge
opls_700-0    C    0.03318006    0.90942004    0.59842887    0.01260000
opls_700-1    C    0.03187996    0.95445989    0.62226935    -0.00480000
opls_145-2    C    0.06153004    0.97786003    0.76822106    -0.22560000
opls_145-3    C    0.28062000    0.72136992    0.47063046    0.12000000
opls_145-4    C    0.28303997    0.76253987    0.33306897    -0.23310000
opls_145-5    C    0.24739010    0.70905990    0.63740086    -0.23300000
opls_700-6    C    0.43404988    0.61567016    0.34925961    0.06490000
opls_145-7    C    0.43509007    0.65401986    0.16352023    -0.20090000
opls_145-8    C    0.40354012    0.68102012    0.14834103    -0.23400000
opls_145-9    C    0.36985997    0.67009010    0.31247114    0.12010000
opls_145-10    C    0.36781001    0.63099000    0.48296105    -0.23400000
opls_145-11    C    0.39953989    0.60449000    0.50400060    -0.22610000
opls_700-12    C    0.53318006    0.40942004    0.59842887    0.01260000
opls_700-13    C    0.53187996    0.45445989    0.62226935    -0.00480000
opls_145-14    C    0.56153004    0.47786003    0.76822106    -0.22570000
opls_145-15    C    0.78062000    0.22136992    0.47063046    0.12000000
opls_145-16    C    0.78303997    0.26253987    0.33306897    -0.23300000
opls_145-17    C    0.74739010    0.20905990    0.63740086    -0.23310000
opls_700-18    C    0.93404988    0.11567016    0.34925961    0.06490000
opls_145-19    C    0.93509007    0.15401986    0.16352023    -0.20090000
opls_145-20    C    0.90354012    0.18102012    0.14834103    -0.23400000
opls_145-21    C    0.86985997    0.17009010    0.31247114    0.12010000
opls_145-22    C    0.86781001    0.13099000    0.48296105    -0.23410000
opls_145-23    C    0.89953989    0.10449000    0.50400060    -0.22610000
opls_700-24    C    0.96681994    0.90942004    0.40157113    0.01260000
opls_700-25    C    0.96812004    0.95445989    0.37773065    -0.00480000
opls_145-26    C    0.93846996    0.97786003    0.23177894    -0.22560000
opls_145-27    C    0.71938000    0.72136992    0.52936954    0.11990000
opls_145-28    C    0.71696003    0.76253987    0.66693103    -0.23300000
opls_145-29    C    0.75260990    0.70905990    0.36259914    -0.23300000
opls_700-30    C    0.56595012    0.61567016    0.65074039    0.06490000
opls_145-31    C    0.56490993    0.65401986    0.83647977    -0.20090000
opls_145-32    C    0.59645988    0.68102012    0.85165897    -0.23400000
opls_145-33    C    0.63014003    0.67009010    0.68752886    0.12010000
opls_145-34    C    0.63218999    0.63099000    0.51703895    -0.23400000
opls_145-35    C    0.60046011    0.60449000    0.49599940    -0.22610000
opls_700-36    C    0.46681994    0.40942004    0.40157113    0.01260000
opls_700-37    C    0.46812004    0.45445989    0.37773065    -0.00480000
opls_145-38    C    0.43846996    0.47786003    0.23177894    -0.22560000
opls_145-39    C    0.21938000    0.22136992    0.52936954    0.12000000
opls_145-40    C    0.21696003    0.26253987    0.66693103    -0.23300000
opls_145-41    C    0.25260990    0.20905990    0.36259914    -0.23300000
opls_700-42    C    0.06595012    0.11567016    0.65074039    0.06490000
opls_145-43    C    0.06490993    0.15401986    0.83647977    -0.20090000
opls_145-44    C    0.09645988    0.18102012    0.85165897    -0.23400000
opls_145-45    C    0.13014003    0.17009010    0.68752886    0.12010000
opls_145-46    C    0.13218999    0.13099000    0.51703895    -0.23400000
opls_145-47    C    0.10046011    0.10449000    0.49599940    -0.22610000
opls_700-48    C    0.96681994    0.09057996    0.40157113    0.01260000
opls_700-49    C    0.96812004    0.04554011    0.37773065    -0.00480000
opls_145-50    C    0.93846996    0.02213997    0.23177894    -0.22560000
opls_145-51    C    0.71938000    0.27863008    0.52936954    0.12000000
opls_145-52    C    0.71696003    0.23746013    0.66693103    -0.23300000
opls_145-53    C    0.75260990    0.29094010    0.36259914    -0.23300000
opls_700-54    C    0.56595012    0.38432984    0.65074039    0.06490000
opls_145-55    C    0.56490993    0.34598014    0.83647977    -0.20090000
opls_145-56    C    0.59645988    0.31897988    0.85165897    -0.23400000
opls_145-57    C    0.63014003    0.32990990    0.68752886    0.12010000
opls_145-58    C    0.63218999    0.36901000    0.51703895    -0.23400000
opls_145-59    C    0.60046011    0.39551000    0.49599940    -0.22610000
opls_700-60    C    0.46681994    0.59057996    0.40157113    0.01260000
opls_700-61    C    0.46812004    0.54554011    0.37773065    -0.00480000
opls_145-62    C    0.43846996    0.52213997    0.23177894    -0.22560000
opls_145-63    C    0.21938000    0.77863008    0.52936954    0.12000000
opls_145-64    C    0.21696003    0.73746013    0.66693103    -0.23300000
opls_145-65    C    0.25260990    0.79094010    0.36259914    -0.23300000
opls_700-66    C    0.06595012    0.88432984    0.65074039    0.06490000
opls_145-67    C    0.06490993    0.84598014    0.83647977    -0.20090000
opls_145-68    C    0.09645988    0.81897988    0.85165897    -0.23400000
opls_145-69    C    0.13014003    0.82990990    0.68752886    0.12010000
opls_145-70    C    0.13218999    0.86901000    0.51703895    -0.23410000
opls_145-71    C    0.10046011    0.89551000    0.49599940    -0.22610000
opls_700-72    C    0.03318006    0.09057996    0.59842887    0.01260000
opls_700-73    C    0.03187996    0.04554011    0.62226935    -0.00480000
opls_145-74    C    0.06153004    0.02213997    0.76822106    -0.22560000
opls_145-75    C    0.28062000    0.27863008    0.47063046    0.12000000
opls_145-76    C    0.28303997    0.23746013    0.33306897    -0.23300000
opls_145-77    C    0.24739010    0.29094010    0.63740086    -0.23300000
opls_700-78    C    0.43404988    0.38432984    0.34925961    0.06480000
opls_145-79    C    0.43509007    0.34598014    0.16352023    -0.20090000
opls_145-80    C    0.40354012    0.31897988    0.14834103    -0.23410000
opls_145-81    C    0.36985997    0.32990990    0.31247114    0.12010000
opls_145-82    C    0.36781001    0.36901000    0.48296105    -0.23400000
opls_145-83    C    0.39953989    0.39551000    0.50400060    -0.22610000
opls_700-84    C    0.53318006    0.59057996    0.59842887    0.01260000
opls_700-85    C    0.53187996    0.54554011    0.62226935    -0.00480000
opls_145-86    C    0.56153004    0.52213997    0.76822106    -0.22570000
opls_145-87    C    0.78062000    0.77863008    0.47063046    0.12000000
opls_145-88    C    0.78303997    0.73746013    0.33306897    -0.23300000
opls_145-89    C    0.74739010    0.79094010    0.63740086    -0.23300000
opls_700-90    C    0.93404988    0.88432984    0.34925961    0.06490000
opls_145-91    C    0.93509007    0.84598014    0.16352023    -0.20090000
opls_145-92    C    0.90354012    0.81897988    0.14834103    -0.23400000
opls_145-93    C    0.86985997    0.82990990    0.31247114    0.12010000
opls_145-94    C    0.86781001    0.86901000    0.48296105    -0.23400000
opls_145-95    C    0.89953989    0.89551000    0.50400060    -0.22610000
opls_145-96    C    0.00000000    0.11185002    0.50000000    -0.10450000
opls_700-97    C    0.00000000    0.97727005    0.50000000    -0.00250000
opls_145-98    C    0.50000000    0.61185002    0.50000000    -0.10460000
opls_700-99    C    0.50000000    0.47727005    0.50000000    -0.00250000
opls_145-100    C    0.00000000    0.88814998    0.50000000    -0.10450000
opls_700-101    C    0.00000000    0.02272995    0.50000000    -0.00250000
opls_145-102    C    0.50000000    0.38814998    0.50000000    -0.10450000
opls_700-103    C    0.50000000    0.52272995    0.50000000    -0.00250000
opls_750-104    N    0.30889986    0.69291991    0.45402068    -0.08660000
opls_750-105    N    0.34129007    0.69830995    0.30876920    -0.08670000
opls_750-106    N    0.80889986    0.19291991    0.45402068    -0.08660000
opls_750-107    N    0.84129007    0.19830995    0.30876920    -0.08670000
opls_750-108    N    0.69110014    0.69291991    0.54597932    -0.08660000
opls_750-109    N    0.65870993    0.69830995    0.69123080    -0.08660000
opls_750-110    N    0.19110014    0.19291991    0.54597932    -0.08660000
opls_750-111    N    0.15870993    0.19830995    0.69123080    -0.08660000
opls_750-112    N    0.69110014    0.30708009    0.54597932    -0.08660000
opls_750-113    N    0.65870993    0.30169005    0.69123080    -0.08670000
opls_750-114    N    0.19110014    0.80708009    0.54597932    -0.08660000
opls_750-115    N    0.15870993    0.80169005    0.69123080    -0.08660000
opls_750-116    N    0.30889986    0.30708009    0.45402068    -0.08660000
opls_750-117    N    0.34129007    0.30169005    0.30876920    -0.08660000
opls_750-118    N    0.80889986    0.80708009    0.45402068    -0.08660000
opls_750-119    N    0.84129007    0.80169005    0.30876920    -0.08660000
opls_146-120    H    0.08373014    0.96297989    0.87953017    0.20020000
opls_146-121    H    0.30698000    0.77175003    0.21071931    0.20010000
opls_146-122    H    0.24544011    0.67938016    0.73938109    0.20000000
opls_146-123    H    0.45901996    0.66286006    0.03934093    0.20010000
opls_146-124    H    0.40508013    0.70890012    0.01804036    0.20010000
opls_146-125    H    0.34338001    0.62232987    0.59982933    0.20010000
opls_146-126    H    0.39732013    0.57729002    0.64160978    0.20010000
opls_146-127    H    0.58373014    0.46297989    0.87953017    0.20010000
opls_146-128    H    0.80698000    0.27175003    0.21071931    0.20000000
opls_146-129    H    0.74544011    0.17938016    0.73938109    0.20010000
opls_146-130    H    0.95901996    0.16286006    0.03934093    0.20010000
opls_146-131    H    0.90508013    0.20890012    0.01804036    0.20010000
opls_146-132    H    0.84338001    0.12232987    0.59982933    0.20010000
opls_146-133    H    0.89732013    0.07729002    0.64160978    0.20010000
opls_146-134    H    0.91626986    0.96297989    0.12046983    0.20020000
opls_146-135    H    0.69302000    0.77175003    0.78928069    0.20010000
opls_146-136    H    0.75455989    0.67938016    0.26061891    0.20010000
opls_146-137    H    0.54098004    0.66286006    0.96065907    0.20010000
opls_146-138    H    0.59491987    0.70890012    0.98195964    0.20000000
opls_146-139    H    0.65661999    0.62232987    0.40017067    0.20010000
opls_146-140    H    0.60267987    0.57729002    0.35839022    0.20010000
opls_146-141    H    0.41626986    0.46297989    0.12046983    0.20020000
opls_146-142    H    0.19302000    0.27175003    0.78928069    0.20010000
opls_146-143    H    0.25455989    0.17938016    0.26061891    0.20010000
opls_146-144    H    0.04098004    0.16286006    0.96065907    0.20010000
opls_146-145    H    0.09491987    0.20890012    0.98195964    0.20010000
opls_146-146    H    0.15661999    0.12232987    0.40017067    0.20010000
opls_146-147    H    0.10267987    0.07729002    0.35839022    0.20000000
opls_146-148    H    0.91626986    0.03702011    0.12046983    0.20010000
opls_146-149    H    0.69302000    0.22824997    0.78928069    0.20000000
opls_146-150    H    0.75455989    0.32061984    0.26061891    0.20000000
opls_146-151    H    0.54098004    0.33713994    0.96065907    0.20010000
opls_146-152    H    0.59491987    0.29109988    0.98195964    0.20010000
opls_146-153    H    0.65661999    0.37767013    0.40017067    0.20010000
opls_146-154    H    0.60267987    0.42270998    0.35839022    0.20010000
opls_146-155    H    0.41626986    0.53702011    0.12046983    0.20010000
opls_146-156    H    0.19302000    0.72824997    0.78928069    0.20010000
opls_146-157    H    0.25455989    0.82061984    0.26061891    0.20010000
opls_146-158    H    0.04098004    0.83713994    0.96065907    0.20010000
opls_146-159    H    0.09491987    0.79109988    0.98195964    0.20010000
opls_146-160    H    0.15661999    0.87767013    0.40017067    0.20010000
opls_146-161    H    0.10267987    0.92270998    0.35839022    0.20000000
opls_146-162    H    0.08373014    0.03702011    0.87953017    0.20020000
opls_146-163    H    0.30698000    0.22824997    0.21071931    0.20010000
opls_146-164    H    0.24544011    0.32061984    0.73938109    0.20000000
opls_146-165    H    0.45901996    0.33713994    0.03934093    0.20010000
opls_146-166    H    0.40508013    0.29109988    0.01804036    0.20010000
opls_146-167    H    0.34338001    0.37767013    0.59982933    0.20010000
opls_146-168    H    0.39732013    0.42270998    0.64160978    0.20010000
opls_146-169    H    0.58373014    0.53702011    0.87953017    0.20010000
opls_146-170    H    0.80698000    0.72824997    0.21071931    0.20010000
opls_146-171    H    0.74544011    0.82061984    0.73938109    0.20000000
opls_146-172    H    0.95901996    0.83713994    0.03934093    0.20010000
opls_146-173    H    0.90508013    0.79109988    0.01804036    0.20010000
opls_146-174    H    0.84338001    0.87767013    0.59982933    0.20000000
opls_146-175    H    0.89732013    0.92270998    0.64160978    0.20010000
opls_146-176    H    0.00000000    0.14427012    0.50000000    0.20000000
opls_146-177    H    0.50000000    0.64427012    0.50000000    0.20010000
opls_146-178    H    0.00000000    0.85572988    0.50000000    0.20010000
opls_146-179    H    0.50000000    0.35572988    0.50000000    0.20010000
