#======================================================================
# Crystal Data Generated By AuToFF
#----------------------------------------------------------------------

data_AuToFF_phase_1

_cell_length_a                         42.1400
_cell_length_b                         36.9000
_cell_length_c                         4.3300
_cell_angle_alpha                      90.00
_cell_angle_beta                       90.00
_cell_angle_gamma                      90.00
_symmetry_space_group_name_H-M_alt     'P 1'
_symmetry_space_group_IT_number        1

loop_
_space_group_symop_operation_xyz
   'x, y, z'

loop_
   _atom_site_label
   _atom_site_type_symbol
   _atom_site_fract_x
   _atom_site_fract_y
   _atom_site_fract_z
   _atom_site_charge
opls_700-0    C    0.97083009    0.46141003    0.18057044    0.02050000
opls_700-1    C    0.02916991    0.53858997    0.18057044    0.02050000
opls_700-2    C    0.97083009    0.53858997    0.18057044    0.02050000
opls_700-3    C    0.02916991    0.46141003    0.18057044    0.02050000
opls_700-4    C    0.47093996    0.96151003    0.62900000    0.02910000
opls_700-5    C    0.52906004    0.03848997    0.62900000    0.02910000
opls_700-6    C    0.47093996    0.03848997    0.62900000    0.02910000
opls_700-7    C    0.52906004    0.96151003    0.62900000    0.02910000
opls_145-8    C    0.94285002    0.51881003    0.12632102    -0.12620000
opls_145-9    C    0.05714998    0.48118997    0.12632102    -0.12620000
opls_145-10    C    0.94285002    0.48118997    0.12632102    -0.12610000
opls_145-11    C    0.05714998    0.51881003    0.12632102    -0.12620000
opls_145-12    C    0.44321001    0.01882005    0.56342956    -0.11950000
opls_145-13    C    0.55678999    0.98117995    0.56342956    -0.11950000
opls_145-14    C    0.44321001    0.98117995    0.56342956    -0.11950000
opls_145-15    C    0.55678999    0.01882005    0.56342956    -0.11950000
opls_700-16    C    0.97071001    0.57711003    0.20058891    0.01970000
opls_700-17    C    0.02928999    0.42288997    0.20058891    0.01980000
opls_700-18    C    0.97071001    0.42288997    0.20058891    0.01970000
opls_700-19    C    0.02928999    0.57711003    0.20058891    0.01980000
opls_700-20    C    0.47076009    0.07916992    0.63760970    0.03090000
opls_700-21    C    0.52923991    0.92083008    0.63760970    0.03090000
opls_700-22    C    0.47076009    0.92083008    0.63760970    0.03090000
opls_700-23    C    0.52923991    0.07916992    0.63760970    0.03090000
opls_700-24    C    0.94268011    0.59807995    0.24206005    0.08190000
opls_700-25    C    0.05733009    0.40192005    0.24206005    0.08190000
opls_700-26    C    0.94268011    0.40192005    0.24206005    0.08190000
opls_700-27    C    0.05733009    0.59807995    0.24206005    0.08190000
opls_700-28    C    0.44250997    0.09980000    0.67181986    0.09210000
opls_700-29    C    0.55749003    0.90020000    0.67181986    0.09340000
opls_700-30    C    0.44250997    0.90020000    0.67181986    0.09340000
opls_700-31    C    0.55749003    0.09980000    0.67181986    0.09220000
opls_145-32    C    0.91811011    0.58646992    0.43978984    -0.13440000
opls_145-33    C    0.08190009    0.41353008    0.43978984    -0.13440000
opls_145-34    C    0.91811011    0.41353008    0.43978984    -0.13430000
opls_145-35    C    0.08190009    0.58646992    0.43978984    -0.13440000
opls_145-36    C    0.41729995    0.08761003    0.85887067    -0.13440000
opls_145-37    C    0.58270005    0.91238997    0.85887067    -0.13440000
opls_145-38    C    0.41729995    0.91238997    0.85887067    -0.13440000
opls_145-39    C    0.58270005    0.08761003    0.85887067    -0.13440000
opls_145-40    C    0.89131989    0.60806992    0.49018014    -0.17390000
opls_145-41    C    0.10868011    0.39193008    0.49018014    -0.16860000
opls_145-42    C    0.89131989    0.39193008    0.49018014    -0.17660000
opls_145-43    C    0.10868011    0.60806992    0.49018014    -0.17660000
opls_145-44    C    0.38923991    0.10766992    0.88432102    -0.17390000
opls_145-45    C    0.61076009    0.89233008    0.88432102    -0.17400000
opls_145-46    C    0.38923991    0.89233008    0.88432102    -0.17400000
opls_145-47    C    0.61076009    0.10766992    0.88432102    -0.17400000
opls_145-48    C    0.88884006    0.64243008    0.35675058    0.21140000
opls_145-49    C    0.11115994    0.35757995    0.35675058    0.21140000
opls_145-50    C    0.88884006    0.35757995    0.35675058    0.21140000
opls_145-51    C    0.11115994    0.64243008    0.35675058    0.21140000
opls_145-52    C    0.38599003    0.14104986    0.73536952    0.21160000
opls_145-53    C    0.61400997    0.85894986    0.73536952    0.21160000
opls_145-54    C    0.38599003    0.85894986    0.73536952    0.21160000
opls_145-55    C    0.61400997    0.14104986    0.73536952    0.21160000
opls_145-56    C    0.91325012    0.65444011    0.16000924    -0.17320000
opls_145-57    C    0.08674988    0.34555989    0.16000924    -0.17310000
opls_145-58    C    0.91325012    0.34555989    0.16000924    -0.17310000
opls_145-59    C    0.08674988    0.65444011    0.16000924    -0.17320000
opls_145-60    C    0.41141006    0.15412005    0.55642956    -0.17320000
opls_145-61    C    0.58858994    0.84587995    0.55642956    -0.17270000
opls_145-62    C    0.41141006    0.84587995    0.55642956    -0.17270000
opls_145-63    C    0.58858994    0.15412005    0.55642956    -0.17320000
opls_145-64    C    0.93971998    0.63254986    0.10357968    -0.13550000
opls_145-65    C    0.06028002    0.36744986    0.10357968    -0.13550000
opls_145-66    C    0.93971998    0.36744986    0.10357968    -0.13550000
opls_145-67    C    0.06028002    0.63254986    0.10357968    -0.13550000
opls_145-68    C    0.43921001    0.13374986    0.52487991    -0.13560000
opls_145-69    C    0.56078999    0.86625989    0.52487991    -0.13560000
opls_145-70    C    0.43921001    0.86625989    0.52487991    -0.13560000
opls_145-71    C    0.56078999    0.13374986    0.52487991    -0.13560000
opls_142-72    C    0.85835999    0.69842005    0.36033949    0.07850000
opls_142-73    C    0.14164001    0.30157995    0.36033949    0.07760000
opls_142-74    C    0.85835999    0.30157995    0.36033949    0.08650000
opls_142-75    C    0.14164001    0.69842005    0.36033949    0.07760000
opls_142-76    C    0.35171001    0.19348997    0.67400924    0.07980000
opls_142-77    C    0.64828999    0.80651003    0.67400924    0.07980000
opls_142-78    C    0.35171001    0.80651003    0.67400924    0.07980000
opls_142-79    C    0.64828999    0.19348997    0.67400924    0.07980000
opls_145-80    C    0.00000000    0.59535014    0.20373903    -0.18140000
opls_145-81    C    0.00000000    0.40465014    0.20373903    -0.18140000
opls_145-82    C    0.50000000    0.09737995    0.63145035    -0.17810000
opls_145-83    C    0.50000000    0.90262005    0.63145035    -0.17470000
opls_700-84    C    0.00000000    0.48064011    0.18599076    0.02380000
opls_700-85    C    0.00000000    0.51935989    0.18599076    0.02380000
opls_700-86    C    0.50000000    0.98065014    0.64352887    0.02560000
opls_700-87    C    0.50000000    0.01934986    0.64352887    0.02560000
opls_700-88    C    0.17055007    0.28455989    0.42484988    0.01830000
opls_700-89    C    0.82945990    0.71544986    0.42484988    0.01830000
opls_700-90    C    0.17055007    0.71544986    0.42484988    0.01830000
opls_700-91    C    0.82945990    0.28455989    0.42484988    0.01830000
opls_523-92    C    0.17316991    0.24678997    0.40024018    -0.12400000
opls_523-93    C    0.82683009    0.75321003    0.40024018    -0.12190000
opls_523-94    C    0.17316991    0.75321003    0.40024018    -0.12190000
opls_523-95    C    0.82683009    0.24678997    0.40024018    -0.12400000
opls_522-96    C    0.20197010    0.22958997    0.46366975    -0.17910000
opls_522-97    C    0.79802990    0.77041003    0.46366975    -0.17920000
opls_522-98    C    0.20197010    0.77041003    0.46366975    -0.17920000
opls_522-99    C    0.79802990    0.22958997    0.46366975    -0.17920000
opls_521-100    C    0.22885002    0.25038997    0.54381986    0.14700000
opls_521-101    C    0.77114998    0.74961003    0.54381986    0.14700000
opls_521-102    C    0.22885002    0.74961003    0.54381986    0.14710000
opls_521-103    C    0.77114998    0.25038997    0.54381986    0.14700000
opls_521-104    C    0.19761011    0.30437995    0.50993995    0.07590000
opls_521-105    C    0.80238989    0.69562005    0.50993995    0.07330000
opls_521-106    C    0.19761011    0.69562005    0.50993995    0.07290000
opls_521-107    C    0.80238989    0.30437995    0.50993995    0.07340000
opls_700-108    C    0.67935999    0.79316992    0.66269977    0.01830000
opls_700-109    C    0.32064001    0.20683008    0.66269977    0.01830000
opls_700-110    C    0.67935999    0.20683008    0.66269977    0.01830000
opls_700-111    C    0.32064001    0.79316992    0.66269977    0.01830000
opls_521-112    C    0.68474988    0.75623008    0.60794919    0.07990000
opls_521-113    C    0.31526009    0.24376992    0.60794919    0.07990000
opls_521-114    C    0.68474988    0.24376992    0.60794919    0.07990000
opls_521-115    C    0.31526009    0.75623008    0.60794919    0.07990000
opls_521-116    C    0.74093000    0.76513008    0.59418938    0.14770000
opls_521-117    C    0.25907000    0.23486992    0.59418938    0.14780000
opls_521-118    C    0.74093000    0.23486992    0.59418938    0.14770000
opls_521-119    C    0.25907000    0.76513008    0.59418938    0.14770000
opls_522-120    C    0.73644993    0.80233008    0.65654042    -0.18260000
opls_522-121    C    0.26355007    0.19766992    0.65654042    -0.18260000
opls_522-122    C    0.73644993    0.19766992    0.65654042    -0.18260000
opls_522-123    C    0.26355007    0.80233008    0.65654042    -0.18260000
opls_523-124    C    0.70577005    0.81605014    0.69400000    -0.12940000
opls_523-125    C    0.29422995    0.18394986    0.69400000    -0.12940000
opls_523-126    C    0.70577005    0.18394986    0.69400000    -0.12940000
opls_523-127    C    0.29422995    0.81605014    0.69400000    -0.12940000
opls_750-128    N    0.86273991    0.66268997    0.42276905    -0.30710000
opls_750-129    N    0.13726009    0.33731003    0.42276905    -0.30740000
opls_750-130    N    0.86273991    0.33731003    0.42276905    -0.30720000
opls_750-131    N    0.13726009    0.66268997    0.42276905    -0.30720000
opls_750-132    N    0.35777005    0.15871003    0.75818938    -0.30720000
opls_750-133    N    0.64222995    0.84128997    0.75818938    -0.30730000
opls_750-134    N    0.35777005    0.84128997    0.75818938    -0.30730000
opls_750-135    N    0.64222995    0.15871003    0.75818938    -0.30720000
opls_520-136    N    0.22564001    0.28713008    0.56118938    -0.30840000
opls_520-137    N    0.77435999    0.71286992    0.56118938    -0.30840000
opls_520-138    N    0.22564001    0.71286992    0.56118938    -0.30830000
opls_520-139    N    0.77435999    0.28713008    0.56118938    -0.30830000
opls_520-140    N    0.71480992    0.74336992    0.57863048    -0.30840000
opls_520-141    N    0.28519008    0.25663008    0.57863048    -0.30840000
opls_520-142    N    0.71480992    0.25663008    0.57863048    -0.30840000
opls_520-143    N    0.28519008    0.74336992    0.57863048    -0.30840000
opls_146-144    H    0.92064998    0.53224011    0.07578060    0.11730000
opls_146-145    H    0.07935002    0.46775989    0.07578060    0.11730000
opls_146-146    H    0.92064998    0.46775989    0.07578060    0.11730000
opls_146-147    H    0.07935002    0.53224011    0.07578060    0.11730000
opls_146-148    H    0.42134006    0.03241003    0.50357044    0.11310000
opls_146-149    H    0.57865994    0.96758997    0.50357044    0.11300000
opls_146-150    H    0.42134006    0.96758997    0.50357044    0.11300000
opls_146-151    H    0.57865994    0.03241003    0.50357044    0.11300000
opls_146-152    H    0.92015994    0.56132005    0.56667898    0.11600000
opls_146-153    H    0.07984006    0.43867995    0.56667898    0.11650000
opls_146-154    H    0.92015994    0.43867995    0.56667898    0.11600000
opls_146-155    H    0.07984006    0.56132005    0.56667898    0.11650000
opls_146-156    H    0.41951993    0.06293008    0.99205081    0.11650000
opls_146-157    H    0.58047010    0.93706992    0.99205081    0.11650000
opls_146-158    H    0.41951993    0.93706992    0.99205081    0.11650000
opls_146-159    H    0.58047010    0.06293008    0.99205081    0.11650000
opls_146-160    H    0.87291006    0.59880000    0.64569977    0.11210000
opls_146-161    H    0.12708994    0.40120000    0.64569977    0.11210000
opls_146-162    H    0.87291006    0.40120000    0.64569977    0.11210000
opls_146-163    H    0.12708994    0.59880000    0.64569977    0.11210000
opls_146-164    H    0.37005007    0.09766992    0.02703926    0.11440000
opls_146-165    H    0.62994993    0.90233008    0.02703926    0.11420000
opls_146-166    H    0.37005007    0.90233008    0.02703926    0.11420000
opls_146-167    H    0.62994993    0.09766992    0.02703926    0.11430000
opls_146-168    H    0.91166991    0.68000000    0.03976905    0.11040000
opls_146-169    H    0.08833009    0.32001003    0.03976905    0.11640000
opls_146-170    H    0.91166991    0.32001003    0.03976905    0.11630000
opls_146-171    H    0.08833009    0.68000000    0.03976905    0.11040000
opls_146-172    H    0.40944993    0.17895989    0.42611085    0.11890000
opls_146-173    H    0.59055007    0.82104011    0.42611085    0.11890000
opls_146-174    H    0.40944993    0.82104011    0.42611085    0.11890000
opls_146-175    H    0.59055007    0.17895989    0.42611085    0.11890000
opls_146-176    H    0.95745990    0.64215989    0.94200000    0.11480000
opls_146-177    H    0.04254010    0.35784011    0.94200000    0.11490000
opls_146-178    H    0.95745990    0.35784011    0.94200000    0.11480000
opls_146-179    H    0.04254010    0.64215989    0.94200000    0.11480000
opls_146-180    H    0.45743000    0.14376992    0.37050115    0.10940000
opls_146-181    H    0.54257000    0.85623008    0.37050115    0.11180000
opls_146-182    H    0.45743000    0.85623008    0.37050115    0.11180000
opls_146-183    H    0.54257000    0.14376992    0.37050115    0.10940000
opls_146-184    H    0.00000000    0.62434011    0.24266975    0.11250000
opls_146-185    H    0.00000000    0.37565989    0.24266975    0.11250000
opls_146-186    H    0.50000000    0.12653008    0.66021016    0.11220000
opls_146-187    H    0.50000000    0.87347995    0.66021016    0.11390000
opls_526-188    H    0.15293996    0.23052005    0.33178060    0.11190000
opls_526-189    H    0.84706004    0.76947995    0.33178060    0.11190000
opls_526-190    H    0.15293996    0.76947995    0.33178060    0.11190000
opls_526-191    H    0.84706004    0.23052005    0.33178060    0.11190000
opls_525-192    H    0.20318011    0.20056992    0.43406928    0.11450000
opls_525-193    H    0.79681989    0.79943008    0.43406928    0.11440000
opls_525-194    H    0.20318011    0.79943008    0.43406928    0.11440000
opls_525-195    H    0.79681989    0.20056992    0.43406928    0.11440000
opls_524-196    H    0.19671998    0.33362005    0.52927021    0.10780000
opls_524-197    H    0.80328002    0.66637995    0.52927021    0.10780000
opls_524-198    H    0.19671998    0.66637995    0.52927021    0.10780000
opls_524-199    H    0.80328002    0.33362005    0.52927021    0.10780000
opls_524-200    H    0.66507997    0.73750000    0.58652887    0.12020000
opls_524-201    H    0.33492003    0.26250000    0.58652887    0.10780000
opls_524-202    H    0.66507997    0.26250000    0.58652887    0.12010000
opls_524-203    H    0.33492003    0.73750000    0.58652887    0.10780000
opls_525-204    H    0.75615994    0.82073008    0.68500000    0.11610000
opls_525-205    H    0.24384006    0.17926992    0.68500000    0.11620000
opls_525-206    H    0.75615994    0.17926992    0.68500000    0.11610000
opls_525-207    H    0.24384006    0.82073008    0.68500000    0.11610000
opls_526-208    H    0.70265994    0.84468997    0.74055889    0.11500000
opls_526-209    H    0.29734006    0.15531003    0.74055889    0.11510000
opls_526-210    H    0.70265994    0.15531003    0.74055889    0.11500000
opls_526-211    H    0.29734006    0.84468997    0.74055889    0.11500000
opls_144-212    H    0.37101993    0.78823008    0.61984988    0.11140000
opls_144-213    H    0.12226009    0.71483008    0.27481986    0.08570000
opls_144-214    H    0.62898007    0.21176992    0.61984988    0.11140000
opls_144-215    H    0.87773991    0.28516992    0.27481986    0.08560000
opls_144-216    H    0.37101993    0.21176992    0.61984988    0.11140000
opls_144-217    H    0.12226009    0.28516992    0.27481986    0.08560000
opls_144-218    H    0.62898007    0.78823008    0.61984988    0.11140000
opls_144-219    H    0.87773991    0.71483008    0.27481986    0.08560000
