#======================================================================
# Crystal Data Generated By AuToFF
#----------------------------------------------------------------------

data_AuToFF_phase_1

_cell_length_a                         31.1037
_cell_length_b                         18.9207
_cell_length_c                         4.2090
_cell_angle_alpha                      90.00
_cell_angle_beta                       90.00
_cell_angle_gamma                      90.00
_symmetry_space_group_name_H-M_alt     'P 1'
_symmetry_space_group_IT_number        1

loop_
_space_group_symop_operation_xyz
   'x, y, z'

loop_
   _atom_site_label
   _atom_site_type_symbol
   _atom_site_fract_x
   _atom_site_fract_y
   _atom_site_fract_z
   _atom_site_charge
opls_142-0    C    0.69837994    0.80963019    0.46592065    0.07990000
opls_145-1    C    0.63441005    0.76818987    0.55548111    0.14870000
opls_145-2    C    0.60511997    0.76592991    0.75656926    -0.23570000
opls_145-3    C    0.57779010    0.71718013    0.76177002    -0.22530000
opls_145-4    C    0.57925006    0.67072994    0.56173913    0.03730000
opls_145-5    C    0.60752997    0.67577997    0.35463055    -0.22650000
opls_145-6    C    0.63510997    0.72279990    0.35355904    -0.23610000
opls_145-7    C    0.38865987    0.63542998    0.10837966    0.03730000
opls_145-8    C    0.38283998    0.68073010    0.90848895    -0.22450000
opls_145-9    C    0.34979986    0.71936979    0.91961986    -0.21610000
opls_145-10    C    0.32141996    0.71208993    0.12726063    0.14930000
opls_145-11    C    0.32588985    0.66388981    0.31407935    -0.23280000
opls_145-12    C    0.35944984    0.62692025    0.30831076    -0.22620000
opls_142-13    C    0.28059009    0.80270022    0.02804942    0.07990000
opls_145-14    C    0.75786996    0.95587003    0.49628890    -0.21230000
opls_145-15    C    0.72585995    0.91590005    0.53278926    -0.22620000
opls_145-16    C    0.72532014    0.85960985    0.39684961    0.02200000
opls_145-17    C    0.75400997    0.84657016    0.20108102    -0.22620000
opls_145-18    C    0.78754007    0.88295993    0.18248040    -0.22620000
opls_145-19    C    0.80547009    0.12672998    0.48003089    -0.22440000
opls_145-20    C    0.77472005    0.16824008    0.43679971    -0.22620000
opls_145-21    C    0.74783000    0.15976999    0.22137087    0.02320000
opls_145-22    C    0.75309015    0.10985006    0.04393918    -0.22450000
opls_145-23    C    0.78549015    0.07095985    0.07880019    -0.22580000
opls_145-24    C    0.20241997    0.06190997    0.33244951    0.02150000
opls_145-25    C    0.16679012    0.02869978    0.44138038    -0.01720000
opls_145-26    C    0.18512010    0.91999979    0.27842005    0.03850000
opls_145-27    C    0.15728000    0.96539980    0.39845094    -0.01480000
opls_145-28    C    0.14149989    0.06379997    0.60639107    -0.23520000
opls_145-29    C    0.12169999    0.94219981    0.50836066    -0.23520000
opls_182-30    C    0.06003016    0.89163984    0.84855072    -0.00580000
opls_182-31    C    0.02535004    0.87829996    0.03867902    -0.00580000
opls_182-32    C    0.92823008    0.86137986    0.71287954    -0.00580000
opls_182-33    C    0.96795012    0.84218977    0.83163934    -0.00570000
opls_166-34    C    0.91080997    0.00733007    0.41373010    0.11900000
opls_166-35    C    0.90251996    0.94515002    0.44920884    0.11900000
opls_543-36    C    0.48445008    0.36878022    0.18245902    0.14610000
opls_716-37    C    0.50292988    0.31202017    0.18365883    -0.23610000
opls_716-38    C    0.54203005    0.32225975    0.21690900    -0.23520000
opls_543-39    C    0.54738986    0.38500003    0.23846044    0.14870000
opls_141-40    C    0.44340995    0.37687982    0.15649085    -0.05200000
opls_141-41    C    0.58378006    0.41190019    0.31598955    -0.04850000
opls_543-42    C    0.58070005    0.46601024    0.47023046    0.13520000
opls_716-43    C    0.60453997    0.48458989    0.68334996    -0.21480000
opls_716-44    C    0.59703990    0.54462996    0.73000000    -0.21060000
opls_543-45    C    0.56594007    0.56205003    0.56274887    0.12890000
opls_142-46    C    0.29595000    0.19134017    0.23348064    0.08040000
opls_145-47    C    0.36213987    0.22839007    0.19812069    0.14870000
opls_145-48    C    0.39149008    0.22825001    0.99789024    -0.23290000
opls_145-49    C    0.41828014    0.27698024    0.97947018    -0.22540000
opls_145-50    C    0.41726997    0.32569989    0.17013067    0.03730000
opls_145-51    C    0.38889007    0.32330992    0.37914944    -0.22590000
opls_145-52    C    0.36085000    0.27656006    0.38840105    -0.23520000
opls_145-53    C    0.62120005    0.38166981    0.25771917    0.02310000
opls_145-54    C    0.62440996    0.33895998    0.04073889    -0.22620000
opls_145-55    C    0.65692988    0.29942021    0.01808030    -0.21270000
opls_145-56    C    0.68893990    0.30591997    0.19623901    0.14930000
opls_145-57    C    0.69033009    0.35692020    0.36637919    -0.23570000
opls_145-58    C    0.65766999    0.39585005    0.38756949    -0.20870000
opls_142-59    C    0.71466996    0.20213998    0.18023996    0.07990000
opls_145-60    C    0.24194999    0.04113009    0.37191019    -0.22370000
opls_145-61    C    0.27348997    0.08251016    0.32797101    -0.20960000
opls_145-62    C    0.26595003    0.14304016    0.24277025    0.02320000
opls_145-63    C    0.22765009    0.16077999    0.18000000    -0.20870000
opls_145-64    C    0.19625993    0.12021014    0.21760988    -0.20870000
opls_145-65    C    0.19254012    0.86441992    0.41704918    -0.22540000
opls_145-66    C    0.22283008    0.82576015    0.33250891    -0.22450000
opls_145-67    C    0.24641988    0.84113009    0.10626990    0.02320000
opls_145-68    C    0.23684996    0.89401026    0.95560941    -0.22620000
opls_145-69    C    0.20421011    0.92977004    0.03013067    -0.22470000
opls_145-70    C    0.79150005    0.93590988    0.34693989    0.02080000
opls_145-71    C    0.83172002    0.96455998    0.37747921    -0.01200000
opls_145-72    C    0.80948987    0.07530007    0.30961986    0.03850000
opls_145-73    C    0.84001003    0.02856025    0.36325968    -0.01700000
opls_145-74    C    0.86334005    0.92414023    0.42875030    -0.23760000
opls_145-75    C    0.87926999    0.04921012    0.38741031    -0.23770000
opls_182-76    C    0.96288995    0.07771013    0.26875030    -0.00570000
opls_182-77    C    0.97901986    0.12740015    0.45862913    -0.00570000
opls_182-78    C    0.07521999    0.14045992    0.78856973    -0.00580000
opls_182-79    C    0.03182001    0.15395995    0.73240912    -0.00570000
opls_166-80    C    0.09621010    0.97904993    0.66647897    0.11980000
opls_166-81    C    0.10551992    0.04092026    0.70603944    0.11980000
opls_543-82    C    0.51442015    0.63326991    0.42731053    0.14210000
opls_716-83    C    0.49756010    0.69106006    0.41334996    -0.23050000
opls_716-84    C    0.46279992    0.68498998    0.27982894    -0.23030000
opls_543-85    C    0.45792012    0.62306997    0.22401045    0.14210000
opls_141-86    C    0.55147008    0.62192995    0.54365883    -0.05180000
opls_141-87    C    0.42308986    0.59846993    0.11449038    -0.05190000
opls_543-88    C    0.41896012    0.53549974    0.07276075    0.14220000
opls_716-89    C    0.38436006    0.50764982    0.98974103    -0.23030000
opls_716-90    C    0.38921993    0.44642006    0.02316940    -0.23550000
opls_543-91    C    0.42745011    0.43580999    0.11578047    0.13530000
opls_750-92    N    0.66200999    0.81821021    0.54462105    -0.21520000
opls_750-93    N    0.28814996    0.75235007    0.16138988    -0.23200000
opls_542-94    N    0.51155007    0.41409990    0.22416964    -0.28880000
opls_542-95    N    0.55299016    0.51370985    0.41401045    -0.47680000
opls_750-96    N    0.33344007    0.17983003    0.20491091    -0.20330000
opls_750-97    N    0.71982015    0.26099986    0.21631029    -0.23600000
opls_542-98    N    0.48995007    0.59049982    0.31280114    -0.28860000
opls_542-99    N    0.44715998    0.48954003    0.14311951    -0.45410000
opls_179-100    O    0.06187013    0.95628016    0.79420052    -0.24320000
opls_180-101    O    0.98939001    0.89516984    0.91153956    -0.20070000
opls_179-102    O    0.93431007    0.90503998    0.49840105    -0.28110000
opls_179-103    O    0.95073994    0.02562009    0.42727014    -0.24170000
opls_180-104    O    0.01742011    0.11042985    0.54347113    -0.20290000
opls_179-105    O    0.07993004    0.07709017    0.86544072    -0.25770000
F2_Co4+2-106    Co    0.50048001    0.50220975    0.27151105    0.54660000
opls_144-107    H    0.71004993    0.76387026    0.42735091    0.09490000
opls_146-108    H    0.60397991    0.80087999    0.91339986    0.20220000
opls_146-109    H    0.55750988    0.71456976    0.92942029    0.20220000
opls_146-110    H    0.60607998    0.64674986    0.17942029    0.20240000
opls_146-111    H    0.65507994    0.72636002    0.18238061    0.20220000
opls_146-112    H    0.40252992    0.68443979    0.73713946    0.20220000
opls_146-113    H    0.34631989    0.75374008    0.76242100    0.20220000
opls_146-114    H    0.30441009    0.65735993    0.47517938    0.20220000
opls_146-115    H    0.36367988    0.59320004    0.46774056    0.20220000
opls_144-116    H    0.30013985    0.81872024    0.86829888    0.09490000
opls_146-117    H    0.75556992    0.00033984    0.59716085    0.20220000
opls_146-118    H    0.70283986    0.92752012    0.67692088    0.20200000
opls_146-119    H    0.75050010    0.80572019    0.07570919    0.20220000
opls_146-120    H    0.81110993    0.86965017    0.04553100    0.20200000
opls_146-121    H    0.82571012    0.13401988    0.64872891    0.20230000
opls_146-122    H    0.77203002    0.20796006    0.57084105    0.20220000
opls_146-123    H    0.73365998    0.10350991    0.87027085    0.20220000
opls_146-124    H    0.79228998    0.03710011    0.92654075    0.20220000
opls_146-125    H    0.15004003    0.11009001    0.66162034    0.20220000
opls_146-126    H    0.11408000    0.89454988    0.47110953    0.20220000
opls_185-127    H    0.08765999    0.87598979    0.95123070    0.08670000
opls_185-128    H    0.05593997    0.86525974    0.65563079    0.08680000
opls_185-129    H    0.02690998    0.82923993    0.10505108    0.08680000
opls_185-130    H    0.02884994    0.90642999    0.22655025    0.08680000
opls_185-131    H    0.91300006    0.82020010    0.63004989    0.08680000
opls_185-132    H    0.91031999    0.88153980    0.88258019    0.08680000
opls_185-133    H    0.98459990    0.81630014    0.67205037    0.08690000
opls_185-134    H    0.96192993    0.81207989    0.01046092    0.08690000
opls_547-135    H    0.49100011    0.26666984    0.16521977    0.20220000
opls_547-136    H    0.56289991    0.28545984    0.24824899    0.20230000
opls_547-137    H    0.62394988    0.45811994    0.80942979    0.20230000
opls_547-138    H    0.61234998    0.57013007    0.88421953    0.20220000
opls_144-139    H    0.28487993    0.23827025    0.23808981    0.09490000
opls_146-140    H    0.39302012    0.19120011    0.84957947    0.20220000
opls_146-141    H    0.43826008    0.27763983    0.80827037    0.20220000
opls_146-142    H    0.38962985    0.35582986    0.54401996    0.20230000
opls_146-143    H    0.33907992    0.27622022    0.55041102    0.20220000
opls_146-144    H    0.60228011    0.33633005    0.88377049    0.20220000
opls_146-145    H    0.65701990    0.26387026    0.86247090    0.20220000
opls_146-146    H    0.71610001    0.36513977    0.49133048    0.20190000
opls_146-147    H    0.66294010    0.43583007    0.50631029    0.20230000
opls_144-148    H    0.68614988    0.18381984    0.11832027    0.09490000
opls_146-149    H    0.24956002    0.99502978    0.44829888    0.20220000
opls_146-150    H    0.30329993    0.06803977    0.37422903    0.20200000
opls_146-151    H    0.22247996    0.20709012    0.10568068    0.20230000
opls_146-152    H    0.16657986    0.13597013    0.17468995    0.20140000
opls_146-153    H    0.17597006    0.85194998    0.59869090    0.20220000
opls_146-154    H    0.22775007    0.78340019    0.44598004    0.20220000
opls_146-155    H    0.25354990    0.90618000    0.77458066    0.20220000
opls_146-156    H    0.19479998    0.96664024    0.89932050    0.20230000
opls_146-157    H    0.85774008    0.87547977    0.45183892    0.20220000
opls_146-158    H    0.88520015    0.09824002    0.38445949    0.20220000
opls_185-159    H    0.93934001    0.09694990    0.13635068    0.08680000
opls_185-160    H    0.98659999    0.06261978    0.12627940    0.08680000
opls_185-161    H    0.97988985    0.17164006    0.34432882    0.08680000
opls_185-162    H    0.95856988    0.13238992    0.63630078    0.08680000
opls_185-163    H    0.09148011    0.15322002    0.59979092    0.08680000
opls_185-164    H    0.08570009    0.16992976    0.95984082    0.08690000
opls_185-165    H    0.02977009    0.20152003    0.64976004    0.08680000
opls_185-166    H    0.01515993    0.15171003    0.92751010    0.08680000
opls_547-167    H    0.50749011    0.73363988    0.50019957    0.20220000
opls_547-168    H    0.44335015    0.72315982    0.23766928    0.20230000
opls_547-169    H    0.35807991    0.52867019    0.91019957    0.20220000
opls_547-170    H    0.36634002    0.41403014    0.97540984    0.20220000
