#======================================================================
# Crystal Data Generated By AuToFF
#----------------------------------------------------------------------

data_AuToFF_phase_1

_cell_length_a                         48.1550
_cell_length_b                         34.3050
_cell_length_c                         3.8473
_cell_angle_alpha                      90.00
_cell_angle_beta                       90.00
_cell_angle_gamma                      90.00
_symmetry_space_group_name_H-M_alt     'P 1'
_symmetry_space_group_IT_number        1

loop_
_space_group_symop_operation_xyz
   'x, y, z'

loop_
   _atom_site_label
   _atom_site_type_symbol
   _atom_site_fract_x
   _atom_site_fract_y
   _atom_site_fract_z
   _atom_site_charge
opls_700-0    C    0.55212003    0.61104999    0.53845034    0.06640000
opls_145-1    C    0.57613000    0.59921994    0.73517012    -0.10750000
opls_145-2    C    0.60150992    0.61855007    0.72871884    -0.16800000
opls_916-3    C    0.60642010    0.65324005    0.54654953    0.19940000
opls_145-4    C    0.58289004    0.66685002    0.36938112    -0.17670000
opls_145-5    C    0.55735002    0.64753010    0.36373041    -0.08770000
opls_234-6    C    0.64476005    0.70662994    0.39134978    0.37820000
opls_700-7    C    0.67620995    0.72101997    0.45006888    -0.03560000
opls_145-8    C    0.69825999    0.70121003    0.61007980    -0.12170000
opls_145-9    C    0.72514007    0.71672001    0.62812102    -0.08770000
opls_700-10    C    0.73294009    0.75426993    0.49152912    0.06650000
opls_145-11    C    0.70991008    0.77366011    0.33356900    -0.13380000
opls_145-12    C    0.68353006    0.75774989    0.31403062    -0.12120000
opls_700-13    C    0.97373004    0.08862994    0.47677072    0.03850000
opls_700-14    C    0.97530994    0.04695992    0.45128012    0.01870000
opls_145-15    C    0.94965009    0.02370004    0.37291087    -0.10770000
opls_700-16    C    0.05245997    0.11094010    0.51697034    0.06660000
opls_145-17    C    0.07774001    0.09790993    0.35242118    -0.10940000
opls_145-18    C    0.10266992    0.11842006    0.35964962    -0.16650000
opls_916-19    C    0.10580002    0.15488005    0.51673901    0.19550000
opls_145-20    C    0.08134005    0.16898994    0.66960986    -0.17540000
opls_145-21    C    0.05623009    0.14872992    0.67298885    -0.10930000
opls_234-22    C    0.15896999    0.16764991    0.64128090    0.37930000
opls_700-23    C    0.18529997    0.19574989    0.58962909    -0.03550000
opls_145-24    C    0.21109999    0.18338988    0.72367894    -0.12430000
opls_145-25    C    0.23542000    0.20494010    0.70283056    -0.10900000
opls_700-26    C    0.23705991    0.24230987    0.54259091    0.06700000
opls_145-27    C    0.21059994    0.25433989    0.40663062    -0.10930000
opls_145-28    C    0.18619001    0.23239003    0.42910093    -0.12160000
opls_700-29    C    0.47380999    0.58868008    0.48562108    0.03800000
opls_700-30    C    0.47481009    0.54642997    0.50012996    0.03150000
opls_145-31    C    0.45033994    0.52413001    0.51153016    -0.12600000
opls_700-32    C    0.44792005    0.39727999    0.53655031    0.06650000
opls_145-33    C    0.42343993    0.40868008    0.72714891    -0.10930000
opls_145-34    C    0.39838002    0.38841014    0.72000884    -0.17140000
opls_916-35    C    0.39459994    0.35312986    0.54477946    0.19550000
opls_145-36    C    0.41849008    0.34003994    0.37252879    -0.17560000
opls_145-37    C    0.44354999    0.36043988    0.36473891    -0.08750000
opls_234-38    C    0.34149995    0.33983997    0.41706911    0.38020000
opls_700-39    C    0.31511993    0.31190001    0.47224027    -0.03550000
opls_145-40    C    0.28934005    0.32417986    0.33721051    -0.12420000
opls_145-41    C    0.26499990    0.30269990    0.35949107    -0.10900000
opls_700-42    C    0.26331990    0.26544993    0.52179970    0.06700000
opls_145-43    C    0.28975994    0.25350007    0.65903101    -0.10930000
opls_145-44    C    0.31419001    0.27541000    0.63543004    -0.11960000
opls_700-45    C    0.02626996    0.91961988    0.52446911    0.02910000
opls_700-46    C    0.02472993    0.96128990    0.54673927    0.03000000
opls_145-47    C    0.05039996    0.98441014    0.62516050    -0.10750000
opls_700-48    C    0.94787997    0.89664014    0.46760066    0.06700000
opls_145-49    C    0.92174001    0.90727999    0.62806904    -0.09030000
opls_145-50    C    0.89740006    0.88521003    0.60752996    -0.12080000
opls_700-51    C    0.89617008    0.84944993    0.43236036    -0.03550000
opls_145-52    C    0.92157990    0.83789010    0.28189899    -0.12420000
opls_145-53    C    0.94587000    0.85954001    0.29706028    -0.08940000
opls_234-54    C    0.86972007    0.82160997    0.38085930    0.37930000
opls_916-55    C    0.81620995    0.81068999    0.51523926    0.19950000
opls_145-56    C    0.79114007    0.83134004    0.50086034    -0.16680000
opls_145-57    C    0.76511993    0.81374989    0.49520963    -0.12760000
opls_700-58    C    0.76090998    0.77238012    0.50743119    0.06650000
opls_145-59    C    0.78679992    0.75176009    0.52656928    -0.10760000
opls_145-60    C    0.81268010    0.77016003    0.52663946    -0.17940000
opls_700-61    C    0.52620995    0.41990001    0.48507005    0.03780000
opls_700-62    C    0.52522002    0.46209999    0.49938918    0.00940000
opls_145-63    C    0.54967002    0.48439003    0.51091935    -0.12540000
opls_700-64    C    0.44787997    0.61104999    0.46154966    0.06640000
opls_145-65    C    0.42387000    0.59921994    0.26482988    -0.10750000
opls_145-66    C    0.39849008    0.61855007    0.27128116    -0.16800000
opls_916-67    C    0.39357990    0.65324005    0.45345047    0.19940000
opls_145-68    C    0.41710996    0.66685002    0.63061888    -0.17680000
opls_145-69    C    0.44264998    0.64753010    0.63626959    -0.08770000
opls_234-70    C    0.35523995    0.70662994    0.60865022    0.37820000
opls_700-71    C    0.32379005    0.72101997    0.54993112    -0.03560000
opls_145-72    C    0.30174001    0.70121003    0.38992020    -0.12170000
opls_145-73    C    0.27485993    0.71672001    0.37187898    -0.08770000
opls_700-74    C    0.26705991    0.75426993    0.50847088    0.06650000
opls_145-75    C    0.29008992    0.77366011    0.66643100    -0.13380000
opls_145-76    C    0.31646994    0.75774989    0.68596938    -0.12120000
opls_700-77    C    0.02626996    0.08862994    0.52322928    0.03850000
opls_700-78    C    0.02469006    0.04695992    0.54871988    0.01870000
opls_145-79    C    0.05034991    0.02370004    0.62708913    -0.10770000
opls_700-80    C    0.94754003    0.11094010    0.48302966    0.06660000
opls_145-81    C    0.92225999    0.09790993    0.64757882    -0.10940000
opls_145-82    C    0.89733008    0.11842006    0.64035038    -0.16660000
opls_916-83    C    0.89419998    0.15488005    0.48326099    0.19550000
opls_145-84    C    0.91865995    0.16898994    0.33039014    -0.17540000
opls_145-85    C    0.94376991    0.14872992    0.32701115    -0.10940000
opls_234-86    C    0.84103001    0.16764991    0.35871910    0.37930000
opls_700-87    C    0.81470003    0.19574989    0.41037091    -0.03550000
opls_145-88    C    0.78890001    0.18338988    0.27632106    -0.12430000
opls_145-89    C    0.76458000    0.20494010    0.29716944    -0.10900000
opls_700-90    C    0.76294009    0.24230987    0.45740909    0.06700000
opls_145-91    C    0.78940006    0.25433989    0.59336938    -0.10930000
opls_145-92    C    0.81380999    0.23239003    0.57089907    -0.12160000
opls_700-93    C    0.52619001    0.58868008    0.51437892    0.03800000
opls_700-94    C    0.52518991    0.54642997    0.49987004    0.03150000
opls_145-95    C    0.54966006    0.52413001    0.48846984    -0.12600000
opls_700-96    C    0.55207995    0.39727999    0.46344969    0.06650000
opls_145-97    C    0.57656007    0.40868008    0.27285109    -0.10930000
opls_145-98    C    0.60161998    0.38841014    0.27999116    -0.17140000
opls_916-99    C    0.60540006    0.35312986    0.45522054    0.19560000
opls_145-100    C    0.58150992    0.34003994    0.62747121    -0.17560000
opls_145-101    C    0.55645001    0.36043988    0.63526109    -0.08750000
opls_234-102    C    0.65850005    0.33983997    0.58293089    0.38020000
opls_700-103    C    0.68488007    0.31190001    0.52775973    -0.03550000
opls_145-104    C    0.71065995    0.32417986    0.66278949    -0.12420000
opls_145-105    C    0.73500010    0.30269990    0.64050893    -0.10900000
opls_700-106    C    0.73668010    0.26544993    0.47820030    0.06700000
opls_145-107    C    0.71024006    0.25350007    0.34096899    -0.10930000
opls_145-108    C    0.68580999    0.27541000    0.36456996    -0.11950000
opls_700-109    C    0.97373004    0.91961988    0.47553089    0.02910000
opls_700-110    C    0.97527007    0.96128990    0.45326073    0.03000000
opls_145-111    C    0.94960004    0.98441014    0.37483950    -0.10750000
opls_700-112    C    0.05212003    0.89664014    0.53239934    0.06700000
opls_145-113    C    0.07825999    0.90727999    0.37193096    -0.09020000
opls_145-114    C    0.10259994    0.88521003    0.39247004    -0.12080000
opls_700-115    C    0.10382992    0.84944993    0.56763964    -0.03550000
opls_145-116    C    0.07842010    0.83789010    0.71810101    -0.12420000
opls_145-117    C    0.05413000    0.85954001    0.70293972    -0.08940000
opls_234-118    C    0.13027993    0.82160997    0.61914070    0.37930000
opls_916-119    C    0.18379005    0.81068999    0.48476074    0.19950000
opls_145-120    C    0.20885993    0.83134004    0.49913966    -0.16680000
opls_145-121    C    0.23488007    0.81374989    0.50479037    -0.12760000
opls_700-122    C    0.23909002    0.77238012    0.49256881    0.06650000
opls_145-123    C    0.21320008    0.75176009    0.47343072    -0.10760000
opls_145-124    C    0.18731990    0.77016003    0.47336054    -0.17940000
opls_700-125    C    0.47379005    0.41990001    0.51492995    0.03780000
opls_700-126    C    0.47477998    0.46209999    0.50061082    0.00940000
opls_145-127    C    0.45032998    0.48439003    0.48908065    -0.12540000
opls_700-128    C    0.00000000    0.02535986    0.50000000    -0.00190000
opls_700-129    C    0.00000000    0.98288005    0.50000000    -0.00240000
opls_145-130    C    0.00000000    0.10754992    0.50000000    -0.07350000
opls_145-131    C    0.00000000    0.90079988    0.50000000    -0.07350000
opls_700-132    C    0.50000000    0.52505990    0.50000000    0.03000000
opls_700-133    C    0.50000000    0.48347005    0.50000000    0.02910000
opls_145-134    C    0.50000000    0.60740009    0.50000000    -0.09380000
opls_145-135    C    0.50000000    0.40124996    0.50000000    -0.09380000
opls_238-136    N    0.63393002    0.67223991    0.55655915    -0.38830000
opls_238-137    N    0.13212003    0.17760997    0.50633951    -0.38760000
opls_238-138    N    0.36825003    0.33039994    0.55809009    -0.38780000
opls_238-139    N    0.84328003    0.83111995    0.53014062    -0.38810000
opls_238-140    N    0.36606998    0.67223991    0.44344085    -0.38820000
opls_238-141    N    0.86787997    0.17760997    0.49366049    -0.38770000
opls_238-142    N    0.63174997    0.33039994    0.44190991    -0.38780000
opls_238-143    N    0.15671997    0.83111995    0.46985938    -0.38820000
opls_236-144    O    0.37038999    0.72425011    0.80404959    -0.36090000
opls_236-145    O    0.12884000    0.79259000    0.79709926    -0.35940000
opls_236-146    O    0.16089004    0.13773007    0.80611078    -0.35940000
opls_236-147    O    0.33969993    0.36918991    0.24412965    -0.36080000
opls_236-148    O    0.62961001    0.72425011    0.19595041    -0.36090000
opls_236-149    O    0.87116000    0.79259000    0.20290074    -0.35940000
opls_236-150    O    0.83910996    0.13773007    0.19388922    -0.35940000
opls_236-151    O    0.66030007    0.36918991    0.75587035    -0.36090000
opls_146-152    H    0.57460991    0.57311004    0.90062901    0.10510000
opls_146-153    H    0.61821991    0.60576009    0.88680893    0.08340000
opls_146-154    H    0.58411006    0.69413992    0.21973072    0.06370000
opls_146-155    H    0.54068010    0.66028013    0.20372989    0.09340000
opls_241-156    H    0.64591008    0.66123014    0.74595950    0.30860000
opls_146-157    H    0.69504994    0.67230987    0.72672004    0.11060000
opls_146-158    H    0.74123995    0.69946014    0.76124035    0.08200000
opls_146-159    H    0.71314007    0.80238012    0.21253087    0.07160000
opls_146-160    H    0.66763991    0.77540009    0.18045902    0.09120000
opls_146-161    H    0.93155996    0.04039003    0.29480935    0.11920000
opls_146-162    H    0.07761001    0.07000000    0.21144959    0.07620000
opls_146-163    H    0.12059994    0.10525987    0.22587009    0.10080000
opls_146-164    H    0.08166006    0.19747005    0.80051985    0.06980000
opls_146-165    H    0.03853992    0.16196006    0.81065942    0.07940000
opls_241-166    H    0.13118991    0.20101997    0.35117095    0.30850000
opls_146-167    H    0.21250005    0.15498994    0.85667871    0.10960000
opls_146-168    H    0.25411006    0.19209007    0.82066904    0.08340000
opls_146-169    H    0.20921005    0.28262003    0.27259117    0.08230000
opls_146-170    H    0.16744990    0.24510013    0.31184987    0.11250000
opls_146-171    H    0.42991008    0.53800991    0.53111013    0.06210000
opls_146-172    H    0.42419001    0.43511995    0.88935877    0.10910000
opls_146-173    H    0.38102004    0.40062003    0.87153068    0.10080000
opls_146-174    H    0.41772007    0.31245999    0.22741923    0.11070000
opls_146-175    H    0.46060991    0.34832007    0.20758974    0.10940000
opls_241-176    H    0.36896002    0.30790993    0.72400905    0.30860000
opls_146-177    H    0.28797010    0.35246990    0.20217035    0.10880000
opls_146-178    H    0.24632998    0.31547996    0.24031918    0.08960000
opls_146-179    H    0.29114007    0.22533013    0.79486913    0.06370000
opls_146-180    H    0.33292991    0.26278006    0.75333871    0.06560000
opls_146-181    H    0.06846994    0.96756012    0.70115925    0.11930000
opls_146-182    H    0.92095006    0.93452995    0.77909963    0.10500000
opls_146-183    H    0.87902004    0.89695001    0.74075066    0.07720000
opls_146-184    H    0.92264002    0.81013001    0.13794089    0.09120000
opls_146-185    H    0.96425003    0.84792013    0.16178879    0.10830000
opls_241-186    H    0.84310996    0.85346014    0.69800120    0.30850000
opls_146-187    H    0.79156993    0.86335986    0.49247004    0.11260000
opls_146-188    H    0.74682006    0.83291007    0.48311023    0.08960000
opls_146-189    H    0.78643007    0.71969013    0.53509994    0.07160000
opls_146-190    H    0.83122999    0.75148987    0.54176955    0.08230000
opls_146-191    H    0.57013000    0.47056989    0.53090999    0.07830000
opls_146-192    H    0.42539009    0.57311004    0.09937099    0.10510000
opls_146-193    H    0.38178009    0.60576009    0.11319107    0.08340000
opls_146-194    H    0.41588994    0.69413992    0.78026928    0.06370000
opls_146-195    H    0.45931990    0.66028013    0.79627011    0.09340000
opls_241-196    H    0.35408992    0.66123014    0.25404050    0.30850000
opls_146-197    H    0.30495006    0.67230987    0.27327996    0.11060000
opls_146-198    H    0.25876005    0.69946014    0.23875965    0.08210000
opls_146-199    H    0.28685993    0.80238012    0.78746913    0.07160000
opls_146-200    H    0.33236009    0.77540009    0.81954098    0.09120000
opls_146-201    H    0.06844004    0.04039003    0.70519065    0.11920000
opls_146-202    H    0.92238999    0.07000000    0.78855041    0.07620000
opls_146-203    H    0.87940006    0.10525987    0.77412991    0.10080000
opls_146-204    H    0.91833994    0.19747005    0.19948015    0.06980000
opls_146-205    H    0.96146008    0.16196006    0.18934058    0.07940000
opls_241-206    H    0.86881009    0.20101997    0.64882905    0.30860000
opls_146-207    H    0.78749995    0.15498994    0.14332129    0.10960000
opls_146-208    H    0.74588994    0.19209007    0.17933096    0.08340000
opls_146-209    H    0.79078995    0.28262003    0.72740883    0.08230000
opls_146-210    H    0.83255010    0.24510013    0.68815013    0.11250000
opls_146-211    H    0.57008992    0.53800991    0.46888987    0.06210000
opls_146-212    H    0.57580999    0.43511995    0.11064123    0.10910000
opls_146-213    H    0.61897996    0.40062003    0.12846932    0.10080000
opls_146-214    H    0.58227993    0.31245999    0.77258077    0.11060000
opls_146-215    H    0.53939009    0.34832007    0.79241026    0.10950000
opls_241-216    H    0.63103998    0.30790993    0.27599095    0.30850000
opls_146-217    H    0.71202990    0.35246990    0.79782965    0.10880000
opls_146-218    H    0.75367002    0.31547996    0.75968082    0.08960000
opls_146-219    H    0.70885993    0.22533013    0.20513087    0.06370000
opls_146-220    H    0.66707009    0.26278006    0.24666129    0.06560000
opls_146-221    H    0.93153006    0.96756012    0.29884075    0.11930000
opls_146-222    H    0.07904994    0.93452995    0.22090037    0.10500000
opls_146-223    H    0.12097996    0.89695001    0.25924934    0.07720000
opls_146-224    H    0.07735998    0.81013001    0.86205911    0.09120000
opls_146-225    H    0.03574997    0.84792013    0.83821121    0.10840000
opls_241-226    H    0.15689004    0.85346014    0.30199880    0.30850000
opls_146-227    H    0.20843007    0.86335986    0.50752996    0.11250000
opls_146-228    H    0.25317994    0.83291007    0.51688977    0.08960000
opls_146-229    H    0.21356993    0.71969013    0.46490006    0.07160000
opls_146-230    H    0.16877001    0.75148987    0.45823045    0.08230000
opls_146-231    H    0.42987000    0.47056989    0.46909001    0.07830000
opls_146-232    H    0.00000000    0.13963999    0.50000000    0.07160000
opls_146-233    H    0.00000000    0.86868008    0.50000000    0.10080000
opls_146-234    H    0.50000000    0.63954992    0.50000000    0.08840000
opls_146-235    H    0.50000000    0.36914007    0.50000000    0.10940000
