#======================================================================
# Crystal Data Generated By AuToFF
#----------------------------------------------------------------------

data_AuToFF_phase_1

_cell_length_a                         23.1630
_cell_length_b                         23.1630
_cell_length_c                         3.1630
_cell_angle_alpha                      90.00
_cell_angle_beta                       90.00
_cell_angle_gamma                      120.00
_symmetry_space_group_name_H-M_alt     'P 1'
_symmetry_space_group_IT_number        1

loop_
_space_group_symop_operation_xyz
   'x, y, z'

loop_
   _atom_site_label
   _atom_site_type_symbol
   _atom_site_fract_x
   _atom_site_fract_y
   _atom_site_fract_z
   _atom_site_charge
opls_423-0    C    0.38763011    0.38762996    0.00000000    0.30750000
opls_423-1    C    0.61237016    0.00000000    0.00000000    0.30760000
opls_423-2    C    0.00000016    0.61237004    0.00000000    0.30750000
opls_423-3    C    0.61236989    0.61237004    0.00000000    0.30760000
opls_423-4    C    0.38762984    0.00000000    0.00000000    0.30760000
opls_423-5    C    0.99999984    0.38762996    0.00000000    0.30750000
opls_147-6    C    0.66665016    0.27695011    0.00000000    -0.00700000
opls_145-7    C    0.55516009    0.33536011    0.00000000    -0.20100000
opls_166-8    C    0.55483014    0.39012999    0.00000000    0.12400000
opls_166-9    C    0.49993982    0.44437992    0.00000000    0.11450000
opls_147-10    C    0.72305003    0.38969977    0.00000000    -0.00700000
opls_145-11    C    0.66463981    0.21979985    0.00000000    -0.20100000
opls_166-12    C    0.60987016    0.16469996    0.00000000    0.12400000
opls_166-13    C    0.55562010    0.05556001    0.00000000    0.11450000
opls_147-14    C    0.61030024    0.33335012    0.00000000    -0.00700000
opls_145-15    C    0.78020010    0.44484004    0.00000000    -0.20100000
opls_166-16    C    0.83530013    0.44517005    0.00000000    0.12400000
opls_166-17    C    0.94444009    0.50006007    0.00000000    0.11450000
opls_147-18    C    0.33334984    0.72304989    0.00000000    -0.00700000
opls_145-19    C    0.44483991    0.66463989    0.00000000    -0.20100000
opls_166-20    C    0.44516986    0.60987001    0.00000000    0.12400000
opls_166-21    C    0.50006018    0.55562008    0.00000000    0.11450000
opls_147-22    C    0.27694972    0.61029973    0.00000000    -0.00700000
opls_145-23    C    0.33535994    0.78019965    0.00000000    -0.20100000
opls_166-24    C    0.39012984    0.83530004    0.00000000    0.12400000
opls_166-25    C    0.44437990    0.94443999    0.00000000    0.11450000
opls_147-26    C    0.38969976    0.66664988    0.00000000    -0.00700000
opls_145-27    C    0.21979990    0.55515996    0.00000000    -0.20100000
opls_166-28    C    0.16469987    0.55482995    0.00000000    0.12400000
opls_166-29    C    0.05555991    0.49993993    0.00000000    0.11450000
opls_147-30    C    0.27695012    0.66664988    0.00000000    -0.00700000
opls_145-31    C    0.33536006    0.55515996    0.00000000    -0.20100000
opls_166-32    C    0.39013008    0.55482995    0.00000000    0.12400000
opls_166-33    C    0.44438002    0.49993993    0.00000000    0.11450000
opls_147-34    C    0.38970005    0.72304989    0.00000000    -0.00700000
opls_145-35    C    0.21979998    0.66463989    0.00000000    -0.20100000
opls_166-36    C    0.16470015    0.60987001    0.00000000    0.12400000
opls_166-37    C    0.05555990    0.55562008    0.00000000    0.11450000
opls_147-38    C    0.33335001    0.61029973    0.00000000    -0.00700000
opls_145-39    C    0.44483971    0.78019965    0.00000000    -0.20100000
opls_166-40    C    0.44517020    0.83530004    0.00000000    0.12400000
opls_166-41    C    0.50006008    0.94443999    0.00000000    0.11450000
opls_147-42    C    0.72304988    0.33335012    0.00000000    -0.00700000
opls_145-43    C    0.66463994    0.44484004    0.00000000    -0.20090000
opls_166-44    C    0.60986992    0.44517005    0.00000000    0.12400000
opls_166-45    C    0.55561998    0.50006007    0.00000000    0.11450000
opls_147-46    C    0.61029995    0.27695011    0.00000000    -0.00700000
opls_145-47    C    0.78020002    0.33536011    0.00000000    -0.20100000
opls_166-48    C    0.83529985    0.39012999    0.00000000    0.12410000
opls_166-49    C    0.94444010    0.44437992    0.00000000    0.11450000
opls_147-50    C    0.66664974    0.38969977    0.00000000    -0.00700000
opls_145-51    C    0.55516004    0.21979985    0.00000000    -0.20090000
opls_166-52    C    0.55482980    0.16469996    0.00000000    0.12400000
opls_166-53    C    0.49993992    0.05556001    0.00000000    0.11450000
opls_260-54    C    0.44464015    0.44464014    0.00000000    -0.08990000
opls_260-55    C    0.55535984    0.00000000    0.00000000    -0.08990000
opls_260-56    C    0.00000001    0.55535986    0.00000000    -0.08990000
opls_260-57    C    0.55535985    0.55535986    0.00000000    -0.08990000
opls_260-58    C    0.44464016    0.00000000    0.00000000    -0.08990000
opls_260-59    C    0.99999999    0.44464014    0.00000000    -0.08990000
opls_180-60    O    0.49848983    0.38818978    0.00000000    -0.26430000
opls_180-61    O    0.61181018    0.11029998    0.00000000    -0.26420000
opls_180-62    O    0.88969974    0.50150974    0.00000000    -0.26420000
opls_180-63    O    0.50150992    0.61180972    0.00000000    -0.26420000
opls_180-64    O    0.38818982    0.88970002    0.00000000    -0.26420000
opls_180-65    O    0.11030001    0.49848976    0.00000000    -0.26430000
opls_180-66    O    0.38818975    0.49848976    0.00000000    -0.26420000
opls_180-67    O    0.11029980    0.61180972    0.00000000    -0.26430000
opls_180-68    O    0.50151020    0.88970002    0.00000000    -0.26420000
opls_180-69    O    0.61181000    0.50150974    0.00000000    -0.26430000
opls_180-70    O    0.88969995    0.38818978    0.00000000    -0.26430000
opls_180-71    O    0.49848980    0.11029998    0.00000000    -0.26430000
opls_262-72    N    0.65810017    0.65809993    0.00000000    -0.26420000
opls_262-73    N    0.34190001    0.00000000    0.00000000    -0.26430000
opls_262-74    N    0.00000025    0.34190007    0.00000000    -0.26430000
opls_262-75    N    0.34189983    0.34190007    0.00000000    -0.26430000
opls_262-76    N    0.65809999    0.00000000    0.00000000    -0.26430000
opls_262-77    N    0.99999975    0.65809993    0.00000000    -0.26420000
opls_146-78    H    0.78468017    0.48933013    0.00000000    0.25700000
opls_146-79    H    0.51066993    0.29535014    0.00000000    0.25710000
opls_146-80    H    0.70464989    0.21531973    0.00000000    0.25700000
opls_146-81    H    0.21531983    0.51066987    0.00000000    0.25700000
opls_146-82    H    0.48933007    0.70464986    0.00000000    0.25700000
opls_146-83    H    0.29534986    0.78467977    0.00000000    0.25710000
opls_146-84    H    0.48932991    0.78467977    0.00000000    0.25700000
opls_146-85    H    0.29535005    0.51066987    0.00000000    0.25710000
opls_146-86    H    0.21531979    0.70464986    0.00000000    0.25700000
opls_146-87    H    0.51066984    0.21531973    0.00000000    0.25710000
opls_146-88    H    0.70464995    0.48933013    0.00000000    0.25700000
opls_146-89    H    0.78468021    0.29535014    0.00000000    0.25700000
