#======================================================================
# Crystal Data Generated By AuToFF
#----------------------------------------------------------------------

data_AuToFF_phase_1

_cell_length_a                         37.4100
_cell_length_b                         37.4100
_cell_length_c                         3.6600
_cell_angle_alpha                      90.00
_cell_angle_beta                       90.00
_cell_angle_gamma                      120.00
_symmetry_space_group_name_H-M_alt     'P 1'
_symmetry_space_group_IT_number        1

loop_
_space_group_symop_operation_xyz
   'x, y, z'

loop_
   _atom_site_label
   _atom_site_type_symbol
   _atom_site_fract_x
   _atom_site_fract_y
   _atom_site_fract_z
   _atom_site_charge
opls_142-0    C    0.55852011    0.47073015    0.44833060    0.07290000
opls_531-1    C    0.64734995    0.29129011    0.50257923    0.34890000
opls_700-2    C    0.61923990    0.37363992    0.50395902    0.00030000
opls_523-3    C    0.63870996    0.41692005    0.52272131    -0.12370000
opls_145-4    C    0.61543005    0.43672003    0.52566120    -0.16200000
opls_145-5    C    0.57205998    0.41353991    0.50660929    0.19740000
opls_145-6    C    0.55266990    0.37046998    0.49234973    -0.16570000
opls_523-7    C    0.57589995    0.35061999    0.48957923    -0.12270000
opls_700-8    C    0.52894999    0.48612986    0.47162022    0.03270000
opls_145-9    C    0.48631997    0.45784016    0.47880055    -0.17120000
opls_700-10    C    0.45731006    0.47114993    0.48601093    0.11970000
opls_148-11    C    0.41224986    0.43908993    0.51986066    -0.43270000
opls_142-12    C    0.52927001    0.08778996    0.44833060    0.07290000
opls_531-13    C    0.70871010    0.35606014    0.50257923    0.34890000
opls_700-14    C    0.62635999    0.24559996    0.50395902    0.00030000
opls_523-15    C    0.58307991    0.22178986    0.52272131    -0.12370000
opls_145-16    C    0.56327991    0.17871005    0.52566120    -0.16200000
opls_145-17    C    0.58645991    0.15851992    0.50660929    0.19740000
opls_145-18    C    0.62953014    0.18220008    0.49234973    -0.16570000
opls_523-19    C    0.64937985    0.22527989    0.48957923    -0.12270000
opls_700-20    C    0.51386999    0.04281991    0.47162022    0.03270000
opls_145-21    C    0.54216015    0.02848014    0.47880055    -0.17120000
opls_700-22    C    0.52885009    0.98615995    0.48601093    0.11970000
opls_148-23    C    0.56091017    0.97316008    0.51986066    -0.43270000
opls_142-24    C    0.91220987    0.44147989    0.44833060    0.07290000
opls_531-25    C    0.64394010    0.35265005    0.50257923    0.34890000
opls_700-26    C    0.75440011    0.38076011    0.50395902    0.00030000
opls_523-27    C    0.77821014    0.36129009    0.52272131    -0.12370000
opls_145-28    C    0.82129004    0.38456992    0.52566120    -0.16200000
opls_145-29    C    0.84147996    0.42793986    0.50660929    0.19740000
opls_145-30    C    0.81779996    0.44732994    0.49234973    -0.16570000
opls_523-31    C    0.77471994    0.42410012    0.48957923    -0.12270000
opls_700-32    C    0.95717986    0.47104992    0.47162022    0.03270000
opls_145-33    C    0.97152004    0.51368001    0.47880055    -0.17120000
opls_700-34    C    0.01384012    0.54269012    0.48601093    0.11970000
opls_148-35    C    0.02683998    0.58774999    0.51986066    -0.43270000
opls_142-36    C    0.44147989    0.52926985    0.44833060    0.07290000
opls_531-37    C    0.35265005    0.70870989    0.50257923    0.34890000
opls_700-38    C    0.38076010    0.62636008    0.50395902    0.00030000
opls_523-39    C    0.36129004    0.58307995    0.52272131    -0.12370000
opls_145-40    C    0.38456995    0.56327997    0.52566120    -0.16200000
opls_145-41    C    0.42794002    0.58646009    0.50660929    0.19740000
opls_145-42    C    0.44733010    0.62953002    0.49234973    -0.16570000
opls_523-43    C    0.42410005    0.64938001    0.48957923    -0.12270000
opls_700-44    C    0.47105001    0.51387014    0.47162022    0.03270000
opls_145-45    C    0.51368018    0.54216015    0.47880055    -0.17120000
opls_700-46    C    0.54268994    0.52885007    0.48601093    0.11970000
opls_148-47    C    0.58775014    0.56091007    0.51986066    -0.43270000
opls_142-48    C    0.47072999    0.91221004    0.44833060    0.07290000
opls_531-49    C    0.29128990    0.64393986    0.50257923    0.34890000
opls_700-50    C    0.37364001    0.75440004    0.50395902    0.00030000
opls_523-51    C    0.41692009    0.77821014    0.52272131    -0.12370000
opls_145-52    C    0.43672009    0.82128995    0.52566120    -0.16200000
opls_145-53    C    0.41354009    0.84148008    0.50660929    0.19740000
opls_145-54    C    0.37046986    0.81779992    0.49234973    -0.16570000
opls_523-55    C    0.35062015    0.77472011    0.48957923    -0.12270000
opls_700-56    C    0.48613001    0.95718009    0.47162022    0.03270000
opls_145-57    C    0.45784001    0.97152016    0.47880055    -0.17120000
opls_700-58    C    0.47114991    0.01384005    0.48601093    0.11970000
opls_148-59    C    0.43908983    0.02683992    0.51986066    -0.43270000
opls_142-60    C    0.08779013    0.55852011    0.44833060    0.07290000
opls_531-61    C    0.35605990    0.64734995    0.50257923    0.34900000
opls_700-62    C    0.24559989    0.61923989    0.50395902    0.00030000
opls_523-63    C    0.22178986    0.63870991    0.52272131    -0.12370000
opls_145-64    C    0.17870996    0.61543008    0.52566120    -0.16190000
opls_145-65    C    0.15852004    0.57206014    0.50660929    0.19740000
opls_145-66    C    0.18220004    0.55267006    0.49234973    -0.16570000
opls_523-67    C    0.22528006    0.57589988    0.48957923    -0.12270000
opls_700-68    C    0.04282014    0.52895008    0.47162022    0.03270000
opls_145-69    C    0.02847996    0.48631999    0.47880055    -0.17120000
opls_700-70    C    0.98615988    0.45730988    0.48601093    0.11970000
opls_148-71    C    0.97316002    0.41225001    0.51986066    -0.43270000
opls_520-72    N    0.68921995    0.31416991    0.50259016    -0.46500000
opls_750-73    N    0.54655991    0.43222007    0.51416120    -0.32850000
opls_520-74    N    0.68582994    0.37504989    0.50259016    -0.46490000
opls_750-75    N    0.56778002    0.11434005    0.51416120    -0.32840000
opls_520-76    N    0.62494996    0.31077989    0.50259016    -0.46500000
opls_750-77    N    0.88566007    0.45343989    0.51416120    -0.32850000
opls_520-78    N    0.31078005    0.68583009    0.50259016    -0.46490000
opls_750-79    N    0.45344009    0.56777993    0.51416120    -0.32850000
opls_520-80    N    0.31417006    0.62495011    0.50259016    -0.46490000
opls_750-81    N    0.43221998    0.88565995    0.51416120    -0.32850000
opls_520-82    N    0.37505004    0.68922011    0.50259016    -0.46500000
opls_750-83    N    0.11433993    0.54656011    0.51416120    -0.32850000
opls_144-84    H    0.58991989    0.49172002    0.36560109    0.12010000
opls_526-85    H    0.67200004    0.43559003    0.53833060    0.11980000
opls_146-86    H    0.63159989    0.46994985    0.54981967    0.12090000
opls_146-87    H    0.51931987    0.35217996    0.48177869    0.12030000
opls_526-88    H    0.55983005    0.31725004    0.47628962    0.12170000
opls_146-89    H    0.47539996    0.42499987    0.47728962    0.11820000
opls_702-90    H    0.40829006    0.41051009    0.65036885    0.17380000
opls_702-91    H    0.39752010    0.43071997    0.24925956    0.12740000
opls_702-92    H    0.39546997    0.45061008    0.68778962    0.17750000
opls_144-93    H    0.50827983    0.09819986    0.36560109    0.12010000
opls_526-94    H    0.56440997    0.23640989    0.53833060    0.11980000
opls_146-95    H    0.53005010    0.16165005    0.54981967    0.12090000
opls_146-96    H    0.64781988    0.16713990    0.48177869    0.11980000
opls_526-97    H    0.68275005    0.24258002    0.47628962    0.12170000
opls_146-98    H    0.57500006    0.05040001    0.47728962    0.11820000
opls_702-99    H    0.58949016    0.99778011    0.65036885    0.17380000
opls_702-100    H    0.56928004    0.96680012    0.24925956    0.12740000
opls_702-101    H    0.54938985    0.94485988    0.68778962    0.17750000
opls_144-102    H    0.90180002    0.41008013    0.36560109    0.12010000
opls_526-103    H    0.76358999    0.32800008    0.53833060    0.11980000
opls_146-104    H    0.83835001    0.36840010    0.54981967    0.12090000
opls_146-105    H    0.83285998    0.48068014    0.48177869    0.12020000
opls_526-106    H    0.75741991    0.44016994    0.47628962    0.12170000
opls_146-107    H    0.94959998    0.52460012    0.47728962    0.11820000
opls_702-108    H    0.00221993    0.59171011    0.65036885    0.17380000
opls_702-109    H    0.03319986    0.60247991    0.24925956    0.12740000
opls_702-110    H    0.05513992    0.60453003    0.68778962    0.17750000
opls_144-111    H    0.41008011    0.50827998    0.36560109    0.12010000
opls_526-112    H    0.32799996    0.56440997    0.53833060    0.11980000
opls_146-113    H    0.36840011    0.53005015    0.54981967    0.12090000
opls_146-114    H    0.48068013    0.64782004    0.48177869    0.12020000
opls_526-115    H    0.44016995    0.68274996    0.47628962    0.12170000
opls_146-116    H    0.52460004    0.57500013    0.47728962    0.11820000
opls_702-117    H    0.59170994    0.58948991    0.65036885    0.17380000
opls_702-118    H    0.60247990    0.56928003    0.24925956    0.12740000
opls_702-119    H    0.60453003    0.54938992    0.68778962    0.17760000
opls_144-120    H    0.49172017    0.90180014    0.36560109    0.12010000
opls_526-121    H    0.43559003    0.76359011    0.53833060    0.11980000
opls_146-122    H    0.46994990    0.83834995    0.54981967    0.12090000
opls_146-123    H    0.35218012    0.83286010    0.48177869    0.11980000
opls_526-124    H    0.31724995    0.75741998    0.47628962    0.12170000
opls_146-125    H    0.42499994    0.94959999    0.47728962    0.11820000
opls_702-126    H    0.41050984    0.00221989    0.65036885    0.17380000
opls_702-127    H    0.43071996    0.03319988    0.24925956    0.12740000
opls_702-128    H    0.45061015    0.05514012    0.68778962    0.17750000
opls_144-129    H    0.09819998    0.58991987    0.36560109    0.12010000
opls_526-130    H    0.23641001    0.67199992    0.53833060    0.11980000
opls_146-131    H    0.16164999    0.63159990    0.54981967    0.12090000
opls_146-132    H    0.16714002    0.51931986    0.48177869    0.12020000
opls_526-133    H    0.24258009    0.55983006    0.47628962    0.12170000
opls_146-134    H    0.05040002    0.47539988    0.47728962    0.11820000
opls_702-135    H    0.99778007    0.40828989    0.65036885    0.17380000
opls_702-136    H    0.96680014    0.39752009    0.24925956    0.12740000
opls_702-137    H    0.94486008    0.39546997    0.68778962    0.17750000
