#======================================================================
# Crystal Data Generated By AuToFF
#----------------------------------------------------------------------

data_AuToFF_phase_1

_cell_length_a                         39.0981
_cell_length_b                         39.0981
_cell_length_c                         3.5868
_cell_angle_alpha                      90.00
_cell_angle_beta                       90.00
_cell_angle_gamma                      120.00
_symmetry_space_group_name_H-M_alt     'P 1'
_symmetry_space_group_IT_number        1

loop_
_space_group_symop_operation_xyz
   'x, y, z'

loop_
   _atom_site_label
   _atom_site_type_symbol
   _atom_site_fract_x
   _atom_site_fract_y
   _atom_site_fract_z
   _atom_site_charge
opls_280-0    C    0.30694013    0.68319002    0.00000000    0.28580000
opls_145-1    C    0.35001990    0.71012981    0.00000000    -0.23300000
opls_142-2    C    0.36358993    0.74864995    0.00000000    0.11270000
opls_916-3    C    0.60307986    0.42159985    0.00000000    0.17690000
opls_145-4    C    0.61850000    0.46096997    0.15555927    -0.14080000
opls_145-5    C    0.59525002    0.47885983    0.14606056    -0.13590000
opls_700-6    C    0.55613010    0.45757008    0.00000000    0.12920000
opls_145-7    C    0.54051003    0.41847994    0.90388926    -0.09400000
opls_145-8    C    0.56383008    0.40062995    0.90952939    -0.17600000
opls_261-9    C    0.53202983    0.47579988    0.00000000    -0.11820000
opls_261-10    C    0.51182994    0.49106009    0.00000000    -0.04760000
opls_280-11    C    0.31680997    0.62374989    0.00000000    0.28530000
opls_145-12    C    0.28986983    0.63988990    0.00000000    -0.23300000
opls_142-13    C    0.25134992    0.61494007    0.00000000    0.11270000
opls_916-14    C    0.57839996    0.18147989    0.00000000    0.17690000
opls_145-15    C    0.53903011    0.15753006    0.15555927    -0.14080000
opls_145-16    C    0.52114001    0.11639001    0.14606056    -0.13590000
opls_700-17    C    0.54243010    0.09856010    0.00000000    0.12920000
opls_145-18    C    0.58152009    0.12203001    0.90388926    -0.09400000
opls_145-19    C    0.59936986    0.16319989    0.90952939    -0.17600000
opls_261-20    C    0.52419990    0.05622985    0.00000000    -0.11820000
opls_261-21    C    0.50893990    0.02076997    0.00000000    -0.04760000
opls_280-22    C    0.37625016    0.69306009    0.00000000    0.28580000
opls_145-23    C    0.36011012    0.64997999    0.00000000    -0.23300000
opls_142-24    C    0.38505990    0.63640998    0.00000000    0.11270000
opls_916-25    C    0.81852003    0.39691996    0.00000000    0.17690000
opls_145-26    C    0.84246989    0.38149997    0.15555927    -0.14080000
opls_145-27    C    0.88360982    0.40474986    0.14606056    -0.13590000
opls_700-28    C    0.90143995    0.44387012    0.00000000    0.12920000
opls_145-29    C    0.87797013    0.45949005    0.90388926    -0.09400000
opls_145-30    C    0.83679991    0.43616987    0.90952939    -0.17600000
opls_261-31    C    0.94376986    0.46796998    0.00000000    -0.11820000
opls_261-32    C    0.97922990    0.48816995    0.00000000    -0.04760000
opls_280-33    C    0.69305987    0.31680998    0.00000000    0.28530000
opls_145-34    C    0.64997995    0.28986989    0.00000000    -0.23300000
opls_142-35    C    0.63641007    0.25135005    0.00000000    0.11270000
opls_916-36    C    0.39691999    0.57839985    0.00000000    0.17690000
opls_145-37    C    0.38150000    0.53903003    0.15555927    -0.14080000
opls_145-38    C    0.40474983    0.52113987    0.14606056    -0.13590000
opls_700-39    C    0.44386990    0.54242992    0.00000000    0.12920000
opls_145-40    C    0.45948997    0.58152006    0.90388926    -0.09400000
opls_145-41    C    0.43616992    0.59937005    0.90952939    -0.17600000
opls_261-42    C    0.46797002    0.52419983    0.00000000    -0.11820000
opls_261-43    C    0.48817006    0.50893991    0.00000000    -0.04760000
opls_280-44    C    0.68319003    0.37625011    0.00000000    0.28530000
opls_145-45    C    0.71013017    0.36011010    0.00000000    -0.23300000
opls_142-46    C    0.74865008    0.38505993    0.00000000    0.11270000
opls_916-47    C    0.42159989    0.81851981    0.00000000    0.17690000
opls_145-48    C    0.46096989    0.84246994    0.15555927    -0.14080000
opls_145-49    C    0.47885999    0.88360999    0.14606056    -0.13590000
opls_700-50    C    0.45756990    0.90143990    0.00000000    0.12920000
opls_145-51    C    0.41847991    0.87796999    0.90388926    -0.09390000
opls_145-52    C    0.40062999    0.83679982    0.90952939    -0.17600000
opls_261-53    C    0.47579995    0.94376985    0.00000000    -0.11820000
opls_261-54    C    0.49106010    0.97923003    0.00000000    -0.04760000
opls_280-55    C    0.62374984    0.30693991    0.00000000    0.28530000
opls_145-56    C    0.63988988    0.35002001    0.00000000    -0.23300000
opls_142-57    C    0.61494010    0.36359002    0.00000000    0.11270000
opls_916-58    C    0.18147997    0.60308004    0.00000000    0.17690000
opls_145-59    C    0.15753011    0.61850003    0.15555927    -0.14080000
opls_145-60    C    0.11639003    0.59524985    0.14606056    -0.13590000
opls_700-61    C    0.09856005    0.55612988    0.00000000    0.12920000
opls_145-62    C    0.12202987    0.54050995    0.90388926    -0.09400000
opls_145-63    C    0.16319994    0.56382983    0.90952939    -0.17600000
opls_261-64    C    0.05623014    0.53203002    0.00000000    -0.11820000
opls_261-65    C    0.02077010    0.51183005    0.00000000    -0.04760000
opls_281-66    O    0.28600008    0.69665992    0.00000000    -0.36160000
opls_281-67    O    0.30333994    0.58933991    0.00000000    -0.36180000
opls_281-68    O    0.41065983    0.71399987    0.00000000    -0.36180000
opls_281-69    O    0.71399992    0.30334008    0.00000000    -0.36170000
opls_281-70    O    0.69666006    0.41066009    0.00000000    -0.36180000
opls_281-71    O    0.58934017    0.28600013    0.00000000    -0.36180000
opls_238-72    N    0.40424003    0.77620995    0.00000000    -0.23550000
opls_238-73    N    0.22378983    0.62802987    0.00000000    -0.23550000
opls_238-74    N    0.37196999    0.59575989    0.00000000    -0.23550000
opls_238-75    N    0.59575997    0.22379005    0.00000000    -0.23550000
opls_238-76    N    0.77621002    0.37196983    0.00000000    -0.23540000
opls_238-77    N    0.62803001    0.40424011    0.00000000    -0.23550000
opls_144-78    H    0.34240999    0.75863993    0.00000000    0.09790000
opls_910-79    H    0.42162003    0.76541991    0.00000000    0.28850000
opls_146-80    H    0.64861004    0.47780992    0.25528884    0.11340000
opls_146-81    H    0.60765988    0.50914990    0.23846883    0.11070000
opls_146-82    H    0.51037991    0.40188984    0.80364949    0.11050000
opls_146-83    H    0.55092991    0.37075985    0.80690867    0.11750000
opls_144-84    H    0.24135999    0.58376991    0.00000000    0.09780000
opls_910-85    H    0.23458012    0.65620002    0.00000000    0.28850000
opls_146-86    H    0.52219003    0.17080002    0.25528884    0.11340000
opls_146-87    H    0.49085006    0.09850989    0.23846883    0.11070000
opls_146-88    H    0.59811011    0.10849012    0.80364949    0.11050000
opls_146-89    H    0.62924014    0.18017008    0.80690867    0.11750000
opls_144-90    H    0.41622987    0.65758987    0.00000000    0.09790000
opls_910-91    H    0.34380010    0.57838006    0.00000000    0.28850000
opls_146-92    H    0.82919993    0.35139006    0.25528884    0.11340000
opls_146-93    H    0.90148991    0.39233992    0.23846883    0.11070000
opls_146-94    H    0.89150999    0.48962004    0.80364949    0.11050000
opls_146-95    H    0.81982995    0.44907007    0.80690867    0.11750000
opls_144-96    H    0.65759001    0.24136007    0.00000000    0.09790000
opls_910-97    H    0.57837997    0.23458009    0.00000000    0.28850000
opls_146-98    H    0.35138996    0.52219008    0.25528884    0.11340000
opls_146-99    H    0.39234012    0.49085010    0.23846883    0.11070000
opls_146-100    H    0.48961995    0.59810986    0.80364949    0.11050000
opls_146-101    H    0.44906994    0.62923985    0.80690867    0.11750000
opls_144-102    H    0.75864001    0.41623009    0.00000000    0.09780000
opls_910-103    H    0.76541988    0.34379998    0.00000000    0.28850000
opls_146-104    H    0.47780997    0.82919998    0.25528884    0.11340000
opls_146-105    H    0.50914979    0.90148981    0.23846883    0.11070000
opls_146-106    H    0.40188989    0.89150988    0.80364949    0.11050000
opls_146-107    H    0.37075986    0.81982992    0.80690867    0.11750000
opls_144-108    H    0.58376998    0.34240984    0.00000000    0.09780000
opls_910-109    H    0.65619990    0.42161994    0.00000000    0.28850000
opls_146-110    H    0.17080007    0.64860994    0.25528884    0.11340000
opls_146-111    H    0.09851009    0.60766008    0.23846883    0.11070000
opls_146-112    H    0.10849001    0.51037996    0.80364949    0.11050000
opls_146-113    H    0.18017005    0.55092993    0.80690867    0.11750000
