#======================================================================
# Crystal Data Generated By AuToFF
#----------------------------------------------------------------------

data_AuToFF_phase_1

_cell_length_a                         39.4920
_cell_length_b                         39.4920
_cell_length_c                         27.9680
_cell_angle_alpha                      90.00
_cell_angle_beta                       90.00
_cell_angle_gamma                      90.00
_symmetry_space_group_name_H-M_alt     'P 1'
_symmetry_space_group_IT_number        1

loop_
_space_group_symop_operation_xyz
   'x, y, z'

loop_
   _atom_site_label
   _atom_site_type_symbol
   _atom_site_fract_x
   _atom_site_fract_y
   _atom_site_fract_z
   _atom_site_charge
opls_700-0    C    0.00000000    0.22408007    0.16216998    0.07040000
opls_145-1    C    0.00000000    0.21593006    0.11267985    -0.07440000
opls_145-2    C    0.00000000    0.25882989    0.17365990    -0.07480000
opls_142-3    C    0.00000000    0.19558999    0.19946010    0.03830000
opls_145-4    C    0.00000000    0.17298010    0.28379005    0.23310000
opls_145-5    C    0.00000000    0.18144991    0.33309997    -0.09670000
opls_145-6    C    0.00000000    0.15626988    0.36998999    -0.07460000
opls_700-7    C    0.00000000    0.12109997    0.35951015    0.07540000
opls_145-8    C    0.00000000    0.11325003    0.30956987    -0.07440000
opls_145-9    C    0.00000000    0.13815001    0.27321010    -0.09130000
opls_700-10    C    0.00000000    0.09262990    0.39855013    0.07520000
opls_145-11    C    0.00000000    0.05865011    0.38428990    -0.10360000
opls_145-12    C    0.00000000    0.03227996    0.41702017    -0.07370000
opls_700-13    C    0.00000000    0.03434012    0.46702017    0.09190000
opls_145-14    C    0.00000000    0.06873012    0.48296017    -0.07750000
opls_145-15    C    0.00000000    0.09715006    0.44966998    -0.07750000
opls_700-16    C    0.50000000    0.72408007    0.66216998    0.07040000
opls_145-17    C    0.50000000    0.71593006    0.61267985    -0.07440000
opls_145-18    C    0.50000000    0.75882989    0.67365990    -0.07480000
opls_142-19    C    0.50000000    0.69558999    0.69946010    0.03830000
opls_145-20    C    0.50000000    0.67298010    0.78379005    0.23310000
opls_145-21    C    0.50000000    0.68144991    0.83309997    -0.09670000
opls_145-22    C    0.50000000    0.65626988    0.86998999    -0.07470000
opls_700-23    C    0.50000000    0.62109997    0.85951015    0.07530000
opls_145-24    C    0.50000000    0.61325003    0.80956987    -0.07440000
opls_145-25    C    0.50000000    0.63815001    0.77321010    -0.09130000
opls_700-26    C    0.50000000    0.59262990    0.89855013    0.07520000
opls_142-27    C    0.50000000    0.55865011    0.88428990    -0.10350000
opls_142-28    C    0.50000000    0.53227996    0.91702017    -0.07370000
opls_700-29    C    0.50000000    0.53434012    0.96702017    0.01250000
opls_261-30    C    0.50000000    0.56873012    0.98296017    0.01910000
opls_142-31    C    0.50000000    0.59715006    0.94966998    -0.05450000
opls_700-32    C    0.50000000    0.27591993    0.66216998    0.07040000
opls_145-33    C    0.50000000    0.28406994    0.61267985    -0.07440000
opls_145-34    C    0.50000000    0.24117011    0.67365990    -0.07480000
opls_142-35    C    0.50000000    0.30441001    0.69946010    0.03830000
opls_145-36    C    0.50000000    0.32701990    0.78379005    0.23320000
opls_145-37    C    0.50000000    0.31855009    0.83309997    -0.09670000
opls_145-38    C    0.50000000    0.34373012    0.86998999    -0.07470000
opls_700-39    C    0.50000000    0.37890003    0.85951015    0.07530000
opls_145-40    C    0.50000000    0.38674997    0.80956987    -0.07440000
opls_145-41    C    0.50000000    0.36184999    0.77321010    -0.09130000
opls_700-42    C    0.50000000    0.40737010    0.89855013    0.07520000
opls_142-43    C    0.50000000    0.44134989    0.88428990    -0.10360000
opls_142-44    C    0.50000000    0.46772004    0.91702017    -0.07370000
opls_700-45    C    0.50000000    0.46565988    0.96702017    0.01250000
opls_261-46    C    0.50000000    0.43126988    0.98296017    0.01910000
opls_142-47    C    0.50000000    0.40284994    0.94966998    -0.05450000
opls_700-48    C    0.00000000    0.77591993    0.16216998    0.07040000
opls_145-49    C    0.00000000    0.78406994    0.11267985    -0.07430000
opls_145-50    C    0.00000000    0.74117011    0.17365990    -0.07480000
opls_142-51    C    0.00000000    0.80441001    0.19946010    0.03830000
opls_145-52    C    0.00000000    0.82701990    0.28379005    0.23310000
opls_145-53    C    0.00000000    0.81855009    0.33309997    -0.09670000
opls_145-54    C    0.00000000    0.84373012    0.36998999    -0.07470000
opls_700-55    C    0.00000000    0.87890003    0.35951015    0.07530000
opls_145-56    C    0.00000000    0.88674997    0.30956987    -0.07440000
opls_145-57    C    0.00000000    0.86184999    0.27321010    -0.09130000
opls_700-58    C    0.00000000    0.90737010    0.39855013    0.07530000
opls_145-59    C    0.00000000    0.94134989    0.38428990    -0.10360000
opls_145-60    C    0.00000000    0.96772004    0.41702017    -0.07370000
opls_700-61    C    0.00000000    0.96565988    0.46702017    0.09190000
opls_145-62    C    0.00000000    0.93126988    0.48296017    -0.07750000
opls_145-63    C    0.00000000    0.90284994    0.44966998    -0.07750000
opls_700-64    C    0.77591993    0.50000000    0.41216998    0.07040000
opls_145-65    C    0.78406994    0.50000000    0.36267985    -0.07440000
opls_145-66    C    0.74117011    0.50000000    0.42365990    -0.07480000
opls_142-67    C    0.80441001    0.50000000    0.44946010    0.03830000
opls_145-68    C    0.82701990    0.50000000    0.53379005    0.23310000
opls_145-69    C    0.81855009    0.50000000    0.58309997    -0.09670000
opls_145-70    C    0.84373012    0.50000000    0.61998999    -0.07470000
opls_700-71    C    0.87890003    0.50000000    0.60951015    0.07530000
opls_145-72    C    0.88674997    0.50000000    0.55956987    -0.07440000
opls_145-73    C    0.86184999    0.50000000    0.52321010    -0.09130000
opls_700-74    C    0.90737010    0.50000000    0.64855013    0.07520000
opls_145-75    C    0.94134989    0.50000000    0.63428990    -0.10360000
opls_145-76    C    0.96772004    0.50000000    0.66702017    -0.07370000
opls_700-77    C    0.96565988    0.50000000    0.71702017    0.09190000
opls_145-78    C    0.93126988    0.50000000    0.73296017    -0.07750000
opls_145-79    C    0.90284994    0.50000000    0.69966998    -0.07750000
opls_700-80    C    0.72408007    0.00000000    0.91216998    0.07040000
opls_145-81    C    0.71593006    0.00000000    0.86267985    -0.07440000
opls_145-82    C    0.75882989    0.00000000    0.92365990    -0.07480000
opls_142-83    C    0.69558999    0.00000000    0.94946010    0.03830000
opls_145-84    C    0.67298010    0.00000000    0.03379005    0.23310000
opls_145-85    C    0.68144991    0.00000000    0.08309997    -0.09670000
opls_145-86    C    0.65626988    0.00000000    0.11998999    -0.07470000
opls_700-87    C    0.62109997    0.00000000    0.10951015    0.07530000
opls_145-88    C    0.61325003    0.00000000    0.05956987    -0.07440000
opls_145-89    C    0.63815001    0.00000000    0.02321010    -0.09130000
opls_700-90    C    0.59262990    0.00000000    0.14855013    0.07520000
opls_145-91    C    0.55865011    0.00000000    0.13428990    -0.10360000
opls_145-92    C    0.53227996    0.00000000    0.16702017    -0.07370000
opls_700-93    C    0.53434012    0.00000000    0.21702017    0.09190000
opls_145-94    C    0.56873012    0.00000000    0.23296017    -0.07750000
opls_145-95    C    0.59715006    0.00000000    0.19966998    -0.07750000
opls_700-96    C    0.50000000    0.22408007    0.58783002    0.07040000
opls_145-97    C    0.50000000    0.21593006    0.63732015    -0.07440000
opls_145-98    C    0.50000000    0.25882989    0.57634010    -0.07480000
opls_142-99    C    0.50000000    0.19558999    0.55053990    0.03830000
opls_145-100    C    0.50000000    0.17298010    0.46620995    0.23310000
opls_145-101    C    0.50000000    0.18144991    0.41690003    -0.09670000
opls_145-102    C    0.50000000    0.15626988    0.38001001    -0.07470000
opls_700-103    C    0.50000000    0.12109997    0.39048985    0.07530000
opls_145-104    C    0.50000000    0.11325003    0.44043013    -0.07440000
opls_145-105    C    0.50000000    0.13815001    0.47678990    -0.09120000
opls_700-106    C    0.50000000    0.09262990    0.35144987    0.07520000
opls_145-107    C    0.50000000    0.05865011    0.36571010    -0.10360000
opls_145-108    C    0.50000000    0.03227996    0.33297983    -0.07370000
opls_700-109    C    0.50000000    0.03434012    0.28297983    0.09190000
opls_145-110    C    0.50000000    0.06873012    0.26703983    -0.07750000
opls_145-111    C    0.50000000    0.09715006    0.30033002    -0.07750000
opls_700-112    C    0.00000000    0.72408007    0.08783002    0.07040000
opls_145-113    C    0.00000000    0.71593006    0.13732015    -0.07440000
opls_145-114    C    0.00000000    0.75882989    0.07634010    -0.07480000
opls_142-115    C    0.00000000    0.69558999    0.05053990    0.03830000
opls_145-116    C    0.00000000    0.67298010    0.96620995    0.23310000
opls_145-117    C    0.00000000    0.68144991    0.91690003    -0.09670000
opls_145-118    C    0.00000000    0.65626988    0.88001001    -0.07470000
opls_700-119    C    0.00000000    0.62109997    0.89048985    0.07530000
opls_145-120    C    0.00000000    0.61325003    0.94043013    -0.07440000
opls_145-121    C    0.00000000    0.63815001    0.97678990    -0.09130000
opls_700-122    C    0.00000000    0.59262990    0.85144987    0.07520000
opls_145-123    C    0.00000000    0.55865011    0.86571010    -0.10360000
opls_145-124    C    0.00000000    0.53227996    0.83297983    -0.07370000
opls_700-125    C    0.00000000    0.53434012    0.78297983    0.09190000
opls_145-126    C    0.00000000    0.56873012    0.76703983    -0.07750000
opls_145-127    C    0.00000000    0.59715006    0.80033002    -0.07750000
opls_700-128    C    0.00000000    0.27591993    0.08783002    0.07040000
opls_145-129    C    0.00000000    0.28406994    0.13732015    -0.07440000
opls_145-130    C    0.00000000    0.24117011    0.07634010    -0.07480000
opls_142-131    C    0.00000000    0.30441001    0.05053990    0.03830000
opls_145-132    C    0.00000000    0.32701990    0.96620995    0.23310000
opls_145-133    C    0.00000000    0.31855009    0.91690003    -0.09670000
opls_145-134    C    0.00000000    0.34373012    0.88001001    -0.07470000
opls_700-135    C    0.00000000    0.37890003    0.89048985    0.07530000
opls_145-136    C    0.00000000    0.38674997    0.94043013    -0.07440000
opls_145-137    C    0.00000000    0.36184999    0.97678990    -0.09130000
opls_700-138    C    0.00000000    0.40737010    0.85144987    0.07520000
opls_145-139    C    0.00000000    0.44134989    0.86571010    -0.10360000
opls_145-140    C    0.00000000    0.46772004    0.83297983    -0.07370000
opls_700-141    C    0.00000000    0.46565988    0.78297983    0.09190000
opls_145-142    C    0.00000000    0.43126988    0.76703983    -0.07750000
opls_145-143    C    0.00000000    0.40284994    0.80033002    -0.07750000
opls_700-144    C    0.50000000    0.77591993    0.58783002    0.07040000
opls_145-145    C    0.50000000    0.78406994    0.63732015    -0.07440000
opls_145-146    C    0.50000000    0.74117011    0.57634010    -0.07480000
opls_142-147    C    0.50000000    0.80441001    0.55053990    0.03830000
opls_145-148    C    0.50000000    0.82701990    0.46620995    0.23310000
opls_145-149    C    0.50000000    0.81855009    0.41690003    -0.09670000
opls_145-150    C    0.50000000    0.84373012    0.38001001    -0.07470000
opls_700-151    C    0.50000000    0.87890003    0.39048985    0.07540000
opls_145-152    C    0.50000000    0.88674997    0.44043013    -0.07440000
opls_145-153    C    0.50000000    0.86184999    0.47678990    -0.09130000
opls_700-154    C    0.50000000    0.90737010    0.35144987    0.07520000
opls_145-155    C    0.50000000    0.94134989    0.36571010    -0.10360000
opls_145-156    C    0.50000000    0.96772004    0.33297983    -0.07370000
opls_700-157    C    0.50000000    0.96565988    0.28297983    0.09190000
opls_145-158    C    0.50000000    0.93126988    0.26703983    -0.07750000
opls_145-159    C    0.50000000    0.90284994    0.30033002    -0.07750000
opls_700-160    C    0.72408007    0.50000000    0.33783002    0.07040000
opls_145-161    C    0.71593006    0.50000000    0.38732015    -0.07440000
opls_145-162    C    0.75882989    0.50000000    0.32634010    -0.07480000
opls_142-163    C    0.69558999    0.50000000    0.30053990    0.03830000
opls_145-164    C    0.67298010    0.50000000    0.21620995    0.23320000
opls_145-165    C    0.68144991    0.50000000    0.16690003    -0.09670000
opls_145-166    C    0.65626988    0.50000000    0.13001001    -0.07460000
opls_700-167    C    0.62109997    0.50000000    0.14048985    0.07530000
opls_145-168    C    0.61325003    0.50000000    0.19043013    -0.07440000
opls_145-169    C    0.63815001    0.50000000    0.22678990    -0.09130000
opls_700-170    C    0.59262990    0.50000000    0.10144987    0.07520000
opls_142-171    C    0.55865011    0.50000000    0.11571010    -0.10360000
opls_142-172    C    0.53227996    0.50000000    0.08297983    -0.07360000
opls_700-173    C    0.53434012    0.50000000    0.03297983    0.01250000
opls_261-174    C    0.56873012    0.50000000    0.01703983    0.01910000
opls_142-175    C    0.59715006    0.50000000    0.05033002    -0.05450000
opls_700-176    C    0.77591993    0.00000000    0.83783002    0.07040000
opls_145-177    C    0.78406994    0.00000000    0.88732015    -0.07440000
opls_145-178    C    0.74117011    0.00000000    0.82634010    -0.07480000
opls_142-179    C    0.80441001    0.00000000    0.80053990    0.03830000
opls_145-180    C    0.82701990    0.00000000    0.71620995    0.23310000
opls_145-181    C    0.81855009    0.00000000    0.66690003    -0.09660000
opls_145-182    C    0.84373012    0.00000000    0.63001001    -0.07470000
opls_700-183    C    0.87890003    0.00000000    0.64048985    0.07540000
opls_145-184    C    0.88674997    0.00000000    0.69043013    -0.07440000
opls_145-185    C    0.86184999    0.00000000    0.72678990    -0.09130000
opls_700-186    C    0.90737010    0.00000000    0.60144987    0.07520000
opls_145-187    C    0.94134989    0.00000000    0.61571010    -0.10360000
opls_145-188    C    0.96772004    0.00000000    0.58297983    -0.07370000
opls_700-189    C    0.96565988    0.00000000    0.53297983    0.09190000
opls_145-190    C    0.93126988    0.00000000    0.51703983    -0.07750000
opls_145-191    C    0.90284994    0.00000000    0.55033002    -0.07750000
opls_700-192    C    0.27591993    0.50000000    0.33783002    0.07040000
opls_145-193    C    0.28406994    0.50000000    0.38732015    -0.07440000
opls_145-194    C    0.24117011    0.50000000    0.32634010    -0.07480000
opls_142-195    C    0.30441001    0.50000000    0.30053990    0.03830000
opls_145-196    C    0.32701990    0.50000000    0.21620995    0.23310000
opls_145-197    C    0.31855009    0.50000000    0.16690003    -0.09670000
opls_145-198    C    0.34373012    0.50000000    0.13001001    -0.07470000
opls_700-199    C    0.37890003    0.50000000    0.14048985    0.07530000
opls_145-200    C    0.38674997    0.50000000    0.19043013    -0.07440000
opls_145-201    C    0.36184999    0.50000000    0.22678990    -0.09130000
opls_700-202    C    0.40737010    0.50000000    0.10144987    0.07520000
opls_142-203    C    0.44134989    0.50000000    0.11571010    -0.10360000
opls_142-204    C    0.46772004    0.50000000    0.08297983    -0.07370000
opls_700-205    C    0.46565988    0.50000000    0.03297983    0.01250000
opls_261-206    C    0.43126988    0.50000000    0.01703983    0.01910000
opls_142-207    C    0.40284994    0.50000000    0.05033002    -0.05450000
opls_700-208    C    0.22408007    0.00000000    0.83783002    0.07040000
opls_145-209    C    0.21593006    0.00000000    0.88732015    -0.07430000
opls_145-210    C    0.25882989    0.00000000    0.82634010    -0.07480000
opls_142-211    C    0.19558999    0.00000000    0.80053990    0.03830000
opls_145-212    C    0.17298010    0.00000000    0.71620995    0.23320000
opls_145-213    C    0.18144991    0.00000000    0.66690003    -0.09670000
opls_145-214    C    0.15626988    0.00000000    0.63001001    -0.07470000
opls_700-215    C    0.12109997    0.00000000    0.64048985    0.07530000
opls_145-216    C    0.11325003    0.00000000    0.69043013    -0.07440000
opls_145-217    C    0.13815001    0.00000000    0.72678990    -0.09120000
opls_700-218    C    0.09262990    0.00000000    0.60144987    0.07520000
opls_145-219    C    0.05865011    0.00000000    0.61571010    -0.10350000
opls_145-220    C    0.03227996    0.00000000    0.58297983    -0.07370000
opls_700-221    C    0.03434012    0.00000000    0.53297983    0.09190000
opls_145-222    C    0.06873012    0.00000000    0.51703983    -0.07750000
opls_145-223    C    0.09715006    0.00000000    0.55033002    -0.07750000
opls_700-224    C    0.27591993    0.00000000    0.91216998    0.07040000
opls_145-225    C    0.28406994    0.00000000    0.86267985    -0.07440000
opls_145-226    C    0.24117011    0.00000000    0.92365990    -0.07480000
opls_142-227    C    0.30441001    0.00000000    0.94946010    0.03830000
opls_145-228    C    0.32701990    0.00000000    0.03379005    0.23330000
opls_145-229    C    0.31855009    0.00000000    0.08309997    -0.09670000
opls_145-230    C    0.34373012    0.00000000    0.11998999    -0.07470000
opls_700-231    C    0.37890003    0.00000000    0.10951015    0.07530000
opls_145-232    C    0.38674997    0.00000000    0.05956987    -0.07440000
opls_145-233    C    0.36184999    0.00000000    0.02321010    -0.09130000
opls_700-234    C    0.40737010    0.00000000    0.14855013    0.07520000
opls_145-235    C    0.44134989    0.00000000    0.13428990    -0.10360000
opls_145-236    C    0.46772004    0.00000000    0.16702017    -0.07370000
opls_700-237    C    0.46565988    0.00000000    0.21702017    0.09190000
opls_145-238    C    0.43126988    0.00000000    0.23296017    -0.07750000
opls_145-239    C    0.40284994    0.00000000    0.19966998    -0.07750000
opls_700-240    C    0.22408007    0.50000000    0.41216998    0.07050000
opls_145-241    C    0.21593006    0.50000000    0.36267985    -0.07440000
opls_145-242    C    0.25882989    0.50000000    0.42365990    -0.07480000
opls_142-243    C    0.19558999    0.50000000    0.44946010    0.03830000
opls_145-244    C    0.17298010    0.50000000    0.53379005    0.23310000
opls_145-245    C    0.18144991    0.50000000    0.58309997    -0.09660000
opls_145-246    C    0.15626988    0.50000000    0.61998999    -0.07470000
opls_700-247    C    0.12109997    0.50000000    0.60951015    0.07530000
opls_145-248    C    0.11325003    0.50000000    0.55956987    -0.07440000
opls_145-249    C    0.13815001    0.50000000    0.52321010    -0.09130000
opls_700-250    C    0.09262990    0.50000000    0.64855013    0.07520000
opls_145-251    C    0.05865011    0.50000000    0.63428990    -0.10360000
opls_145-252    C    0.03227996    0.50000000    0.66702017    -0.07370000
opls_700-253    C    0.03434012    0.50000000    0.71702017    0.09190000
opls_145-254    C    0.06873012    0.50000000    0.73296017    -0.07740000
opls_145-255    C    0.09715006    0.50000000    0.69966998    -0.07750000
opls_701-256    C    0.00000000    0.00000000    0.50000000    0.03800000
opls_701-257    C    0.50000000    0.50000000    0.00000000    0.03800000
opls_701-258    C    0.00000000    0.50000000    0.75000000    0.03810000
opls_701-259    C    0.50000000    0.00000000    0.25000000    0.03800000
opls_146-260    H    0.00000000    0.18831004    0.10081987    0.05150000
opls_146-261    H    0.00000000    0.26717994    0.21267985    0.05150000
opls_146-262    H    0.00000000    0.08571989    0.29732015    0.05150000
opls_144-263    H    0.00000000    0.16800998    0.18742992    0.03040000
opls_146-264    H    0.00000000    0.20914995    0.34458989    0.05150000
opls_146-265    H    0.00000000    0.12930011    0.23441004    0.05150000
opls_146-266    H    0.00000000    0.16424997    0.40916011    0.05150000
opls_146-267    H    0.00000000    0.05193989    0.34464996    0.05150000
opls_146-268    H    0.00000000    0.12422010    0.46383009    0.05150000
opls_146-269    H    0.00000000    0.07465006    0.52286005    0.05150000
opls_146-270    H    0.50000000    0.68831004    0.60081987    0.05150000
opls_146-271    H    0.50000000    0.76717994    0.71267985    0.05150000
opls_146-272    H    0.50000000    0.58571989    0.79732015    0.05150000
opls_144-273    H    0.50000000    0.66800998    0.68742992    0.03040000
opls_146-274    H    0.50000000    0.70914995    0.84458989    0.05150000
opls_146-275    H    0.50000000    0.62930011    0.73441004    0.05150000
opls_146-276    H    0.50000000    0.66424997    0.90916011    0.05150000
opls_144-277    H    0.50000000    0.55193989    0.84464996    0.05150000
opls_144-278    H    0.50000000    0.62422010    0.96383009    0.05150000
opls_146-279    H    0.50000000    0.31168996    0.60081987    0.05150000
opls_146-280    H    0.50000000    0.23282006    0.71267985    0.05150000
opls_146-281    H    0.50000000    0.41428011    0.79732015    0.05150000
opls_144-282    H    0.50000000    0.33199002    0.68742992    0.03040000
opls_146-283    H    0.50000000    0.29085005    0.84458989    0.05150000
opls_146-284    H    0.50000000    0.37069989    0.73441004    0.05150000
opls_146-285    H    0.50000000    0.33575003    0.90916011    0.05150000
opls_144-286    H    0.50000000    0.44806011    0.84464996    0.05150000
opls_144-287    H    0.50000000    0.37577990    0.96383009    0.05150000
opls_146-288    H    0.00000000    0.81168996    0.10081987    0.05150000
opls_146-289    H    0.00000000    0.73282006    0.21267985    0.05150000
opls_146-290    H    0.00000000    0.91428011    0.29732015    0.05150000
opls_144-291    H    0.00000000    0.83199002    0.18742992    0.03040000
opls_146-292    H    0.00000000    0.79085005    0.34458989    0.05150000
opls_146-293    H    0.00000000    0.87069989    0.23441004    0.05150000
opls_146-294    H    0.00000000    0.83575003    0.40916011    0.05150000
opls_146-295    H    0.00000000    0.94806011    0.34464996    0.05150000
opls_146-296    H    0.00000000    0.87577990    0.46383009    0.05150000
opls_146-297    H    0.00000000    0.92534994    0.52286005    0.05150000
opls_146-298    H    0.81168996    0.50000000    0.35081987    0.05150000
opls_146-299    H    0.73282006    0.50000000    0.46267985    0.05150000
opls_146-300    H    0.91428011    0.50000000    0.54732015    0.05150000
opls_144-301    H    0.83199002    0.50000000    0.43742992    0.03040000
opls_146-302    H    0.79085005    0.50000000    0.59458989    0.05150000
opls_146-303    H    0.87069989    0.50000000    0.48441004    0.05150000
opls_146-304    H    0.83575003    0.50000000    0.65916011    0.05150000
opls_146-305    H    0.94806011    0.50000000    0.59464996    0.05150000
opls_146-306    H    0.87577990    0.50000000    0.71383009    0.05160000
opls_146-307    H    0.92534994    0.50000000    0.77286005    0.05150000
opls_146-308    H    0.68831004    0.00000000    0.85081987    0.05150000
opls_146-309    H    0.76717994    0.00000000    0.96267985    0.05150000
opls_146-310    H    0.58571989    0.00000000    0.04732015    0.05150000
opls_144-311    H    0.66800998    0.00000000    0.93742992    0.03040000
opls_146-312    H    0.70914995    0.00000000    0.09458989    0.05150000
opls_146-313    H    0.62930011    0.00000000    0.98441004    0.05150000
opls_146-314    H    0.66424997    0.00000000    0.15916011    0.05150000
opls_146-315    H    0.55193989    0.00000000    0.09464996    0.05150000
opls_146-316    H    0.62422010    0.00000000    0.21383009    0.05150000
opls_146-317    H    0.57465006    0.00000000    0.27286005    0.05150000
opls_146-318    H    0.50000000    0.18831004    0.64918013    0.05150000
opls_146-319    H    0.50000000    0.26717994    0.53732015    0.05150000
opls_146-320    H    0.50000000    0.08571989    0.45267985    0.05150000
opls_144-321    H    0.50000000    0.16800998    0.56257008    0.03040000
opls_146-322    H    0.50000000    0.20914995    0.40541011    0.05150000
opls_146-323    H    0.50000000    0.12930011    0.51558996    0.05150000
opls_146-324    H    0.50000000    0.16424997    0.34083989    0.05150000
opls_146-325    H    0.50000000    0.05193989    0.40535004    0.05150000
opls_146-326    H    0.50000000    0.12422010    0.28616991    0.05150000
opls_146-327    H    0.50000000    0.07465006    0.22713995    0.05150000
opls_146-328    H    0.00000000    0.68831004    0.14918013    0.05150000
opls_146-329    H    0.00000000    0.76717994    0.03732015    0.05150000
opls_146-330    H    0.00000000    0.58571989    0.95267985    0.05150000
opls_144-331    H    0.00000000    0.66800998    0.06257008    0.03040000
opls_146-332    H    0.00000000    0.70914995    0.90541011    0.05150000
opls_146-333    H    0.00000000    0.62930011    0.01558996    0.05150000
opls_146-334    H    0.00000000    0.66424997    0.84083989    0.05150000
opls_146-335    H    0.00000000    0.55193989    0.90535004    0.05150000
opls_146-336    H    0.00000000    0.62422010    0.78616991    0.05150000
opls_146-337    H    0.00000000    0.57465006    0.72713995    0.05150000
opls_146-338    H    0.00000000    0.31168996    0.14918013    0.05150000
opls_146-339    H    0.00000000    0.23282006    0.03732015    0.05150000
opls_146-340    H    0.00000000    0.41428011    0.95267985    0.05150000
opls_144-341    H    0.00000000    0.33199002    0.06257008    0.03040000
opls_146-342    H    0.00000000    0.29085005    0.90541011    0.05150000
opls_146-343    H    0.00000000    0.37069989    0.01558996    0.05150000
opls_146-344    H    0.00000000    0.33575003    0.84083989    0.05150000
opls_146-345    H    0.00000000    0.44806011    0.90535004    0.05150000
opls_146-346    H    0.00000000    0.37577990    0.78616991    0.05150000
opls_146-347    H    0.00000000    0.42534994    0.72713995    0.05160000
opls_146-348    H    0.50000000    0.81168996    0.64918013    0.05150000
opls_146-349    H    0.50000000    0.73282006    0.53732015    0.05160000
opls_146-350    H    0.50000000    0.91428011    0.45267985    0.05150000
opls_144-351    H    0.50000000    0.83199002    0.56257008    0.03050000
opls_146-352    H    0.50000000    0.79085005    0.40541011    0.05150000
opls_146-353    H    0.50000000    0.87069989    0.51558996    0.05150000
opls_146-354    H    0.50000000    0.83575003    0.34083989    0.05150000
opls_146-355    H    0.50000000    0.94806011    0.40535004    0.05150000
opls_146-356    H    0.50000000    0.87577990    0.28616991    0.05150000
opls_146-357    H    0.50000000    0.92534994    0.22713995    0.05150000
opls_146-358    H    0.68831004    0.50000000    0.39918013    0.05150000
opls_146-359    H    0.76717994    0.50000000    0.28732015    0.05160000
opls_146-360    H    0.58571989    0.50000000    0.20267985    0.05150000
opls_144-361    H    0.66800998    0.50000000    0.31257008    0.03040000
opls_146-362    H    0.70914995    0.50000000    0.15541011    0.05150000
opls_146-363    H    0.62930011    0.50000000    0.26558996    0.05150000
opls_146-364    H    0.66424997    0.50000000    0.09083989    0.05160000
opls_144-365    H    0.55193989    0.50000000    0.15535004    0.05150000
opls_144-366    H    0.62422010    0.50000000    0.03616991    0.05150000
opls_146-367    H    0.81168996    0.00000000    0.89918013    0.05150000
opls_146-368    H    0.73282006    0.00000000    0.78732015    0.05150000
opls_146-369    H    0.91428011    0.00000000    0.70267985    0.05150000
opls_144-370    H    0.83199002    0.00000000    0.81257008    0.03040000
opls_146-371    H    0.79085005    0.00000000    0.65541011    0.05150000
opls_146-372    H    0.87069989    0.00000000    0.76558996    0.05150000
opls_146-373    H    0.83575003    0.00000000    0.59083989    0.05150000
opls_146-374    H    0.94806011    0.00000000    0.65535004    0.05150000
opls_146-375    H    0.87577990    0.00000000    0.53616991    0.05150000
opls_146-376    H    0.92534994    0.00000000    0.47713995    0.05150000
opls_146-377    H    0.31168996    0.50000000    0.39918013    0.05150000
opls_146-378    H    0.23282006    0.50000000    0.28732015    0.05150000
opls_146-379    H    0.41428011    0.50000000    0.20267985    0.05150000
opls_144-380    H    0.33199002    0.50000000    0.31257008    0.03040000
opls_146-381    H    0.29085005    0.50000000    0.15541011    0.05150000
opls_146-382    H    0.37069989    0.50000000    0.26558996    0.05150000
opls_146-383    H    0.33575003    0.50000000    0.09083989    0.05150000
opls_144-384    H    0.44806011    0.50000000    0.15535004    0.05150000
opls_144-385    H    0.37577990    0.50000000    0.03616991    0.05150000
opls_146-386    H    0.18831004    0.00000000    0.89918013    0.05150000
opls_146-387    H    0.26717994    0.00000000    0.78732015    0.05160000
opls_146-388    H    0.08571989    0.00000000    0.70267985    0.05150000
opls_144-389    H    0.16800998    0.00000000    0.81257008    0.03040000
opls_146-390    H    0.20914995    0.00000000    0.65541011    0.05150000
opls_146-391    H    0.12930011    0.00000000    0.76558996    0.05150000
opls_146-392    H    0.16424997    0.00000000    0.59083989    0.05150000
opls_146-393    H    0.05193989    0.00000000    0.65535004    0.05150000
opls_146-394    H    0.12422010    0.00000000    0.53616991    0.05150000
opls_146-395    H    0.07465006    0.00000000    0.47713995    0.05150000
opls_146-396    H    0.31168996    0.00000000    0.85081987    0.05150000
opls_146-397    H    0.23282006    0.00000000    0.96267985    0.05150000
opls_146-398    H    0.41428011    0.00000000    0.04732015    0.05150000
opls_144-399    H    0.33199002    0.00000000    0.93742992    0.03040000
opls_146-400    H    0.29085005    0.00000000    0.09458989    0.05150000
opls_146-401    H    0.37069989    0.00000000    0.98441004    0.05150000
opls_146-402    H    0.33575003    0.00000000    0.15916011    0.05150000
opls_146-403    H    0.44806011    0.00000000    0.09464996    0.05150000
opls_146-404    H    0.37577990    0.00000000    0.21383009    0.05150000
opls_146-405    H    0.42534994    0.00000000    0.27286005    0.05150000
opls_146-406    H    0.18831004    0.50000000    0.35081987    0.05150000
opls_146-407    H    0.26717994    0.50000000    0.46267985    0.05150000
opls_146-408    H    0.08571989    0.50000000    0.54732015    0.05150000
opls_144-409    H    0.16800998    0.50000000    0.43742992    0.03040000
opls_146-410    H    0.20914995    0.50000000    0.59458989    0.05150000
opls_146-411    H    0.12930011    0.50000000    0.48441004    0.05150000
opls_146-412    H    0.16424997    0.50000000    0.65916011    0.05150000
opls_146-413    H    0.05193989    0.50000000    0.59464996    0.05160000
opls_146-414    H    0.12422010    0.50000000    0.71383009    0.05150000
opls_146-415    H    0.07465006    0.50000000    0.77286005    0.05150000
opls_144-416    H    0.00000000    0.00493011    0.40395988    -0.09260000
opls_144-417    H    0.50000000    0.50493011    0.90395988    -0.09260000
opls_144-418    H    0.50000000    0.49506989    0.90395988    -0.09260000
opls_144-419    H    0.00000000    0.99506989    0.40395988    -0.09260000
opls_144-420    H    0.99506989    0.50000000    0.65395988    -0.09260000
opls_144-421    H    0.50493011    0.00000000    0.15395988    -0.09260000
opls_144-422    H    0.50000000    0.00493011    0.34604012    -0.09250000
opls_144-423    H    0.00000000    0.50493011    0.84604012    -0.09260000
opls_144-424    H    0.00000000    0.49506989    0.84604012    -0.09260000
opls_144-425    H    0.50000000    0.99506989    0.34604012    -0.09260000
opls_144-426    H    0.50493011    0.50000000    0.09604012    -0.09260000
opls_144-427    H    0.99506989    0.00000000    0.59604012    -0.09260000
opls_144-428    H    0.49506989    0.50000000    0.09604012    -0.09260000
opls_144-429    H    0.00493011    0.00000000    0.59604012    -0.09260000
opls_144-430    H    0.49506989    0.00000000    0.15395988    -0.09260000
opls_144-431    H    0.00493011    0.50000000    0.65395988    -0.09260000
opls_750-432    N    0.00000000    0.19967994    0.24649993    -0.17380000
opls_750-433    N    0.50000000    0.69967994    0.74649993    -0.17370000
opls_750-434    N    0.50000000    0.30032006    0.74649993    -0.17380000
opls_750-435    N    0.00000000    0.80032006    0.24649993    -0.17380000
opls_750-436    N    0.80032006    0.50000000    0.49649993    -0.17380000
opls_750-437    N    0.69967994    0.00000000    0.99649993    -0.17370000
opls_750-438    N    0.50000000    0.19967994    0.50350007    -0.17380000
opls_750-439    N    0.00000000    0.69967994    0.00350007    -0.17380000
opls_750-440    N    0.00000000    0.30032006    0.00350007    -0.17370000
opls_750-441    N    0.50000000    0.80032006    0.50350007    -0.17380000
opls_750-442    N    0.69967994    0.50000000    0.25350007    -0.17380000
opls_750-443    N    0.80032006    0.00000000    0.75350007    -0.17370000
opls_750-444    N    0.30032006    0.50000000    0.25350007    -0.17380000
opls_750-445    N    0.19967994    0.00000000    0.75350007    -0.17380000
opls_750-446    N    0.30032006    0.00000000    0.99649993    -0.17380000
opls_750-447    N    0.19967994    0.50000000    0.49649993    -0.17380000
