#======================================================================
# Crystal Data Generated By AuToFF
#----------------------------------------------------------------------

data_AuToFF_phase_1

_cell_length_a                         15.0200
_cell_length_b                         15.0200
_cell_length_c                         3.4800
_cell_angle_alpha                      90.00
_cell_angle_beta                       90.00
_cell_angle_gamma                      120.00
_symmetry_space_group_name_H-M_alt     'P 1'
_symmetry_space_group_IT_number        1

loop_
_space_group_symop_operation_xyz
   'x, y, z'

loop_
   _atom_site_label
   _atom_site_type_symbol
   _atom_site_fract_x
   _atom_site_fract_y
   _atom_site_fract_z
   _atom_site_charge
opls_520-0    N    0.43713975    0.71856977    0.00000000    -0.44190000
opls_520-1    N    0.28143002    0.71856977    0.00000000    -0.44110000
opls_520-2    N    0.28142985    0.56285969    0.00000000    -0.44190000
opls_180-3    O    0.55381010    0.27689984    0.00000000    -0.56490000
opls_180-4    O    0.72309972    0.27689984    0.00000000    -0.56490000
opls_180-5    O    0.72310016    0.44620033    0.00000000    -0.56490000
opls_531-6    C    0.38562972    0.61436995    0.00000000    0.35120000
opls_531-7    C    0.38562972    0.77127009    0.00000000    0.34870000
opls_531-8    C    0.22873025    0.61436995    0.00000000    0.34870000
opls_700-9    C    0.44271985    0.55727992    0.00000000    -0.00500000
opls_145-10    C    0.55132023    0.44868040    0.00000000    -0.23550000
opls_700-11    C    0.44271975    0.88545016    0.00000000    -0.00490000
opls_145-12    C    0.55131999    0.10263997    0.00000000    -0.23550000
opls_700-13    C    0.11455008    0.55727992    0.00000000    -0.00490000
opls_145-14    C    0.89736017    0.44868040    0.00000000    -0.23550000
opls_523-15    C    0.55089006    0.61035002    0.00000000    -0.12480000
opls_523-16    C    0.38965008    0.94053983    0.00000000    -0.12490000
opls_523-17    C    0.05945986    0.44911014    0.00000000    -0.12480000
opls_523-18    C    0.38965028    0.44911014    0.00000000    -0.12490000
opls_523-19    C    0.05945997    0.61035002    0.00000000    -0.12490000
opls_523-20    C    0.55088976    0.94053983    0.00000000    -0.12480000
opls_145-21    C    0.60463039    0.55662031    0.00000000    -0.04800000
opls_145-22    C    0.44337985    0.04801002    0.00000000    -0.04800000
opls_145-23    C    0.95198976    0.39536967    0.00000000    -0.04800000
opls_145-24    C    0.44337991    0.39536967    0.00000000    -0.04800000
opls_145-25    C    0.95198992    0.55662031    0.00000000    -0.04810000
opls_145-26    C    0.60463018    0.04801002    0.00000000    -0.04800000
MOF2_B_2-27    B    0.61181973    0.38818008    0.00000000    0.76060000
MOF2_B_2-28    B    0.61181992    0.22363984    0.00000000    0.76050000
MOF2_B_2-29    B    0.77636035    0.38818008    0.00000000    0.76060000
opls_526-30    H    0.59379996    0.69357996    0.00000000    0.12100000
opls_146-31    H    0.68799043    0.59932040    0.00000000    0.12030000
opls_526-32    H    0.30642019    0.90021987    0.00000000    0.12100000
opls_146-33    H    0.40067977    0.08866979    0.00000000    0.12030000
opls_526-34    H    0.09977985    0.40620017    0.00000000    0.12100000
opls_146-35    H    0.91132980    0.31200981    0.00000000    0.12030000
opls_526-36    H    0.30642033    0.40620017    0.00000000    0.12100000
opls_146-37    H    0.40068000    0.31200981    0.00000000    0.12030000
opls_526-38    H    0.09977999    0.69357996    0.00000000    0.12100000
opls_146-39    H    0.91132997    0.59932040    0.00000000    0.12030000
opls_526-40    H    0.59379968    0.90021987    0.00000000    0.12100000
opls_146-41    H    0.68799002    0.08866979    0.00000000    0.12030000
