#======================================================================
# Crystal Data Generated By AuToFF
#----------------------------------------------------------------------

data_AuToFF_phase_1

_cell_length_a                         44.9310
_cell_length_b                         44.8445
_cell_length_c                         3.5052
_cell_angle_alpha                      90.27
_cell_angle_beta                       90.23
_cell_angle_gamma                      119.46
_symmetry_space_group_name_H-M_alt     'P 1'
_symmetry_space_group_IT_number        1

loop_
_space_group_symop_operation_xyz
   'x, y, z'

loop_
   _atom_site_label
   _atom_site_type_symbol
   _atom_site_fract_x
   _atom_site_fract_y
   _atom_site_fract_z
   _atom_site_charge
opls_146-0    H    0.32254997    0.19414991    0.00000000    0.04800000
opls_146-1    H    0.87160016    0.67745017    0.00000000    0.05050000
opls_146-2    H    0.79243989    0.15438999    0.00000000    0.04830000
opls_146-3    H    0.84561006    0.63806005    0.00000000    0.04800000
opls_146-4    H    0.80584987    0.12839992    0.00000000    0.04830000
opls_146-5    H    0.36194004    0.20755995    0.00000000    0.05050000
opls_526-6    H    0.66192010    0.24758007    0.00000000    0.04800000
opls_146-7    H    0.69826000    0.21860006    0.00000000    0.04830000
opls_146-8    H    0.79298995    0.32037992    0.00000000    0.04800000
opls_526-9    H    0.75676001    0.34956992    0.00000000    0.04830000
opls_146-10    H    0.76512003    0.19135998    0.00000000    0.04800000
opls_146-11    H    0.89519000    0.24531002    0.00000000    0.04830000
opls_146-12    H    0.86853001    0.28398998    0.00000000    0.04830000
opls_146-13    H    0.82423999    0.08507000    0.00000000    0.04800000
opls_146-14    H    0.93305003    0.16793012    0.00000000    0.04830000
opls_146-15    H    0.91357996    0.21236998    0.00000000    0.04800000
opls_146-16    H    0.88712015    0.03415011    0.00000000    0.04800000
opls_526-17    H    0.91540999    0.99708996    0.00000000    0.04830000
opls_526-18    H    0.01807990    0.09103989    0.00000000    0.04800000
opls_146-19    H    0.98968010    0.12790002    0.00000000    0.04830000
opls_526-20    H    0.75242013    0.41434008    0.00000000    0.05050000
opls_146-21    H    0.78140012    0.47966009    0.00000000    0.04810000
opls_146-22    H    0.67962001    0.47261996    0.00000000    0.04860000
opls_526-23    H    0.65043008    0.40720008    0.00000000    0.04800000
opls_146-24    H    0.80864014    0.57376008    0.00000000    0.05050000
opls_146-25    H    0.75468997    0.64988997    0.00000000    0.05050000
opls_146-26    H    0.71600998    0.58454000    0.00000000    0.04840000
opls_146-27    H    0.91493007    0.73917994    0.00000000    0.04830000
opls_146-28    H    0.83207002    0.76512007    0.00000000    0.05050000
opls_146-29    H    0.78763000    0.70121014    0.00000000    0.04830000
opls_146-30    H    0.96585007    0.85297000    0.00000000    0.05050000
opls_526-31    H    0.00291002    0.91831997    0.00000000    0.04800000
opls_526-32    H    0.90895999    0.92705008    0.00000000    0.05050000
opls_146-33    H    0.87209994    0.86177003    0.00000000    0.04800000
opls_526-34    H    0.58566012    0.33808010    0.00000000    0.04820000
opls_146-35    H    0.52034000    0.30174011    0.00000000    0.05050000
opls_146-36    H    0.52738004    0.20701011    0.00000000    0.04830000
opls_526-37    H    0.59279990    0.24323998    0.00000000    0.05050000
opls_146-38    H    0.42624006    0.23487993    0.00000000    0.04830000
opls_146-39    H    0.35011003    0.10481000    0.00000000    0.04830000
opls_146-40    H    0.41546001    0.13147002    0.00000000    0.05050000
opls_146-41    H    0.26081993    0.17576005    0.00000000    0.05050000
opls_146-42    H    0.23488008    0.06695006    0.00000000    0.04800000
opls_146-43    H    0.29879004    0.08641989    0.00000000    0.05050000
opls_146-44    H    0.14703000    0.11287989    0.00000000    0.04830000
opls_526-45    H    0.08167998    0.08459007    0.00000000    0.05050000
opls_526-46    H    0.07295010    0.98192002    0.00000000    0.04830000
opls_146-47    H    0.13822998    0.01031997    0.00000000    0.05050000
opls_144-48    H    0.46792006    0.24808996    0.00000000    0.03370000
opls_144-49    H    0.94346999    0.13448992    0.00000000    0.03300000
opls_144-50    H    0.75191016    0.21983010    0.00000000    0.03340000
opls_144-51    H    0.86551006    0.80899010    0.00000000    0.03340000
opls_144-52    H    0.78017000    0.53207994    0.00000000    0.03300000
opls_144-53    H    0.19100994    0.05652996    0.00000000    0.03370000
opls_531-54    C    0.68240005    0.36846993    0.00000000    0.40160000
opls_700-55    C    0.59318007    0.29276004    0.00000000    0.00950000
opls_523-56    C    0.69134010    0.26412013    0.00000000    -0.07650000
opls_145-57    C    0.71136999    0.24804002    0.00000000    -0.07650000
opls_700-58    C    0.74748997    0.26760998    0.00000000    0.06740000
opls_145-59    C    0.76355990    0.30395996    0.00000000    -0.07650000
opls_523-60    C    0.74358993    0.32012996    0.00000000    -0.07650000
opls_142-61    C    0.48291993    0.23359996    0.00000000    0.01680000
opls_145-62    C    0.81519010    0.24007999    0.00000000    0.22340000
opls_145-63    C    0.79451001    0.20394001    0.00000000    -0.10780000
opls_145-64    C    0.80936993    0.18377002    0.00000000    -0.10270000
opls_700-65    C    0.84432004    0.19713012    0.00000000    0.08450000
opls_145-66    C    0.86586999    0.23339994    0.00000000    -0.07650000
opls_145-67    C    0.85118015    0.25466014    0.00000000    -0.08880000
opls_700-68    C    0.85794008    0.17265000    0.00000000    0.08460000
opls_145-69    C    0.83480997    0.13801997    0.00000000    -0.10200000
opls_145-70    C    0.84463998    0.11371989    0.00000000    -0.10770000
opls_145-71    C    0.87975996    0.12366007    0.00000000    0.22340000
opls_145-72    C    0.90424986    0.15905993    0.00000000    -0.08920000
opls_145-73    C    0.89354990    0.18360996    0.00000000    -0.07650000
opls_142-74    C    0.92273012    0.10596013    0.00000000    0.01500000
opls_700-75    C    0.93701002    0.08334006    0.00000000    0.06930000
opls_145-76    C    0.91654001    0.04700006    0.00000000    -0.07650000
opls_523-77    C    0.93211992    0.02648997    0.00000000    -0.07650000
opls_700-78    C    0.96837003    0.04176005    0.00000000    0.02040000
opls_523-79    C    0.98865997    0.07806009    0.00000000    -0.07650000
opls_145-80    C    0.97302001    0.09849002    0.00000000    -0.07650000
opls_531-81    C    0.98488010    0.01995999    0.00000000    0.40160000
opls_531-82    C    0.63153005    0.31394008    0.00000000    0.40170000
opls_700-83    C    0.70724007    0.30041992    0.00000000    0.00600000
opls_523-84    C    0.73587998    0.42722000    0.00000000    -0.07650000
opls_145-85    C    0.75196012    0.46333002    0.00000000    -0.07650000
opls_700-86    C    0.73239011    0.47988007    0.00000000    0.06950000
opls_145-87    C    0.69603999    0.45959996    0.00000000    -0.07600000
opls_523-88    C    0.67986993    0.42346996    0.00000000    -0.07640000
opls_142-89    C    0.76640007    0.24932000    0.00000000    0.01500000
opls_145-90    C    0.75992007    0.57510997    0.00000000    0.22330000
opls_145-91    C    0.79606001    0.59057008    0.00000000    -0.10800000
opls_145-92    C    0.81623007    0.62560013    0.00000000    -0.10220000
opls_145-93    C    0.80287001    0.64718993    0.00000000    0.08430000
opls_145-94    C    0.76659990    0.63246995    0.00000000    -0.07600000
opls_145-95    C    0.74534004    0.59652998    0.00000000    -0.08880000
opls_700-96    C    0.82735008    0.68529009    0.00000000    0.08440000
opls_145-97    C    0.86198019    0.69679015    0.00000000    -0.10030000
opls_145-98    C    0.88628010    0.73093001    0.00000000    -0.10560000
opls_145-99    C    0.87634003    0.75609007    0.00000000    0.22320000
opls_145-100    C    0.84094013    0.74519004    0.00000000    -0.10420000
opls_145-101    C    0.81638999    0.70993999    0.00000000    -0.07650000
opls_142-102    C    0.89403999    0.81677009    0.00000000    0.01500000
opls_700-103    C    0.91666008    0.85365993    0.00000000    0.06890000
opls_145-104    C    0.95299994    0.86954003    0.00000000    -0.07590000
opls_523-105    C    0.97350997    0.90563008    0.00000000    -0.07650000
opls_700-106    C    0.95824016    0.92661010    0.00000000    0.00830000
opls_523-107    C    0.92194007    0.91060016    0.00000000    -0.07650000
opls_145-108    C    0.90151017    0.87453009    0.00000000    -0.07630000
opls_531-109    C    0.98004002    0.96492000    0.00000000    0.40170000
opls_531-110    C    0.68606011    0.31759998    0.00000000    0.40170000
opls_700-111    C    0.69958009    0.40682003    0.00000000    0.00950000
opls_523-112    C    0.57278005    0.30866012    0.00000000    -0.07650000
opls_145-113    C    0.53666989    0.28862996    0.00000000    -0.07670000
opls_700-114    C    0.52011992    0.25250995    0.00000000    0.06650000
opls_145-115    C    0.54040011    0.23644008    0.00000000    -0.07650000
opls_523-116    C    0.57653013    0.25641006    0.00000000    -0.07630000
opls_142-117    C    0.75068000    0.51708005    0.00000000    0.01500000
opls_145-118    C    0.42489005    0.18481003    0.00000000    0.22330000
opls_145-119    C    0.40942998    0.20548991    0.00000000    -0.10780000
opls_145-120    C    0.37440013    0.19063011    0.00000000    -0.10000000
opls_700-121    C    0.35280995    0.15567995    0.00000000    0.08420000
opls_145-122    C    0.36753011    0.13413010    0.00000000    -0.07650000
opls_145-123    C    0.40347015    0.14882012    0.00000000    -0.08920000
opls_145-124    C    0.31471006    0.14205991    0.00000000    0.08420000
opls_145-125    C    0.30320997    0.16519014    0.00000000    -0.10280000
opls_145-126    C    0.26907013    0.15536008    0.00000000    -0.10780000
opls_145-127    C    0.24391002    0.12023988    0.00000000    0.22320000
opls_145-128    C    0.25481001    0.09575003    0.00000000    -0.08910000
opls_145-129    C    0.29006011    0.10645005    0.00000000    -0.07600000
opls_142-130    C    0.18323002    0.07727003    0.00000000    0.01680000
opls_700-131    C    0.14634013    0.06299003    0.00000000    0.06930000
opls_145-132    C    0.13046005    0.08345991    0.00000000    -0.07630000
opls_523-133    C    0.09436989    0.06787995    0.00000000    -0.07630000
opls_700-134    C    0.07339016    0.03163010    0.00000000    0.00830000
opls_523-135    C    0.08940009    0.01134000    0.00000000    -0.07650000
opls_145-136    C    0.12547004    0.02697988    0.00000000    -0.07670000
opls_531-137    C    0.03508010    0.01512000    0.00000000    0.40160000
opls_520-138    N    0.64741006    0.34894991    0.00000000    -0.35790000
opls_750-139    N    0.46281991    0.20018997    0.00000000    -0.17670000
opls_750-140    N    0.89018999    0.09707995    0.00000000    -0.18890000
opls_520-141    N    0.96518004    0.98499012    0.00000000    -0.36500000
opls_520-142    N    0.65105011    0.29846001    0.00000000    -0.35480000
opls_750-143    N    0.79980990    0.26262990    0.00000000    -0.18890000
opls_750-144    N    0.90291995    0.79311999    0.00000000    -0.18720000
opls_520-145    N    0.01501016    0.98019008    0.00000000    -0.35790000
opls_520-146    N    0.70154006    0.35259008    0.00000000    -0.36540000
opls_750-147    N    0.73736997    0.53718012    0.00000000    -0.18880000
opls_750-148    N    0.20688004    0.10981005    0.00000000    -0.17730000
opls_520-149    N    0.01980992    0.03482006    0.00000000    -0.36500000
