#======================================================================
# Crystal Data Generated By AuToFF
#----------------------------------------------------------------------

data_AuToFF_phase_1

_cell_length_a                         28.5820
_cell_length_b                         28.5820
_cell_length_c                         3.4900
_cell_angle_alpha                      90.00
_cell_angle_beta                       90.00
_cell_angle_gamma                      120.00
_symmetry_space_group_name_H-M_alt     'P 1'
_symmetry_space_group_IT_number        1

loop_
_space_group_symop_operation_xyz
   'x, y, z'

loop_
   _atom_site_label
   _atom_site_type_symbol
   _atom_site_fract_x
   _atom_site_fract_y
   _atom_site_fract_z
   _atom_site_charge
opls_570-0    H    0.47171003    0.76658988    0.00000000    0.08030000
opls_144-1    H    0.36854994    0.49771985    0.00000000    0.10540000
opls_146-2    H    0.40137987    0.45027985    0.00000000    0.10120000
opls_146-3    H    0.45090991    0.40163998    0.00000000    0.22700000
opls_570-4    H    0.23340979    0.70511992    0.00000000    0.08030000
opls_144-5    H    0.50228019    0.87083006    0.00000000    0.10540000
opls_146-6    H    0.54972009    0.95109996    0.00000000    0.10120000
opls_146-7    H    0.59836012    0.04927010    0.00000000    0.22700000
opls_570-8    H    0.29487998    0.52828980    0.00000000    0.08030000
opls_144-9    H    0.12916987    0.63145009    0.00000000    0.10540000
opls_146-10    H    0.04889985    0.59861979    0.00000000    0.10120000
opls_146-11    H    0.95072997    0.54908992    0.00000000    0.22700000
opls_570-12    H    0.52828997    0.23341012    0.00000000    0.08030000
opls_144-13    H    0.63145006    0.50228015    0.00000000    0.10540000
opls_146-14    H    0.59862013    0.54972015    0.00000000    0.10120000
opls_146-15    H    0.54909009    0.59836002    0.00000000    0.22700000
opls_570-16    H    0.76659021    0.29488008    0.00000000    0.08030000
opls_144-17    H    0.49771981    0.12916994    0.00000000    0.10540000
opls_146-18    H    0.45027991    0.04890004    0.00000000    0.10120000
opls_146-19    H    0.40163988    0.95072990    0.00000000    0.22700000
opls_570-20    H    0.70511982    0.47170980    0.00000000    0.08030000
opls_144-21    H    0.87083013    0.36854991    0.00000000    0.10540000
opls_146-22    H    0.95109995    0.40137981    0.00000000    0.10120000
opls_146-23    H    0.04927003    0.45091008    0.00000000    0.22700000
opls_700-24    C    0.28781995    0.67278006    0.00000000    0.00030000
opls_567-25    C    0.28246984    0.62172996    0.00000000    -0.03380000
opls_567-26    C    0.42281009    0.80322986    0.00000000    -0.02420000
opls_716-27    C    0.43221984    0.76164982    0.00000000    -0.17690000
opls_142-28    C    0.39855002    0.54016000    0.00000000    0.07170000
opls_145-29    C    0.47247010    0.52776016    0.00000000    0.20060000
opls_145-30    C    0.44451019    0.47206006    0.00000000    -0.21310000
opls_145-31    C    0.47174002    0.44478995    0.00000000    -0.21330000
opls_700-32    C    0.32722006    0.61503979    0.00000000    0.00030000
opls_567-33    C    0.37826997    0.66073978    0.00000000    -0.03380000
opls_567-34    C    0.19676986    0.61957989    0.00000000    -0.02420000
opls_716-35    C    0.23834977    0.67056980    0.00000000    -0.17690000
opls_142-36    C    0.45984007    0.85838982    0.00000000    0.07170000
opls_145-37    C    0.47223987    0.94470996    0.00000000    0.20060000
opls_145-38    C    0.52794002    0.97244992    0.00000000    -0.21310000
opls_145-39    C    0.55521008    0.02695015    0.00000000    -0.21330000
opls_700-40    C    0.38495999    0.71218015    0.00000000    0.00030000
opls_567-41    C    0.33926000    0.71752986    0.00000000    -0.03380000
opls_567-42    C    0.38041984    0.57718984    0.00000000    -0.02420000
opls_716-43    C    0.32942984    0.56777997    0.00000000    -0.17690000
opls_142-44    C    0.14161006    0.60144978    0.00000000    0.07170000
opls_145-45    C    0.05529003    0.52752988    0.00000000    0.20060000
opls_145-46    C    0.02755013    0.55549002    0.00000000    -0.21310000
opls_145-47    C    0.97304990    0.52825990    0.00000000    -0.21330000
opls_700-48    C    0.71218005    0.32721994    0.00000000    0.00030000
opls_567-49    C    0.71753016    0.37827004    0.00000000    -0.03380000
opls_567-50    C    0.57718991    0.19677014    0.00000000    -0.02420000
opls_716-51    C    0.56778016    0.23835018    0.00000000    -0.17690000
opls_142-52    C    0.60144998    0.45984000    0.00000000    0.07170000
opls_145-53    C    0.52752990    0.47223984    0.00000000    0.20060000
opls_145-54    C    0.55548981    0.52793994    0.00000000    -0.21310000
opls_145-55    C    0.52825998    0.55521005    0.00000000    -0.21330000
opls_700-56    C    0.67277974    0.38495981    0.00000000    0.00030000
opls_567-57    C    0.62172983    0.33925982    0.00000000    -0.03380000
opls_567-58    C    0.80323014    0.38042011    0.00000000    -0.02420000
opls_716-59    C    0.76165003    0.32942979    0.00000000    -0.17690000
opls_142-60    C    0.54015993    0.14161018    0.00000000    0.07170000
opls_145-61    C    0.52776013    0.05529004    0.00000000    0.20060000
opls_145-62    C    0.47205998    0.02755008    0.00000000    -0.21310000
opls_145-63    C    0.44478992    0.97304985    0.00000000    -0.21330000
opls_700-64    C    0.61504001    0.28781985    0.00000000    0.00030000
opls_567-65    C    0.66074000    0.28247014    0.00000000    -0.03380000
opls_567-66    C    0.61958016    0.42281016    0.00000000    -0.02420000
opls_716-67    C    0.67057016    0.43222003    0.00000000    -0.17690000
opls_142-68    C    0.85838974    0.39854982    0.00000000    0.07170000
opls_145-69    C    0.94470997    0.47247012    0.00000000    0.20060000
opls_145-70    C    0.97244987    0.44450998    0.00000000    -0.21310000
opls_145-71    C    0.02695010    0.47174010    0.00000000    -0.21330000
opls_633-72    S    0.35561000    0.78283010    0.00000000    0.07110000
opls_633-73    S    0.21716977    0.57277982    0.00000000    0.07110000
opls_633-74    S    0.42721988    0.64439008    0.00000000    0.07110000
opls_633-75    S    0.64439000    0.21716990    0.00000000    0.07110000
opls_633-76    S    0.78283003    0.42721977    0.00000000    0.07110000
opls_633-77    S    0.57278012    0.35560992    0.00000000    0.07110000
opls_750-78    N    0.44922990    0.55886985    0.00000000    -0.19630000
opls_750-79    N    0.44112991    0.89036002    0.00000000    -0.19630000
opls_750-80    N    0.10964019    0.55077014    0.00000000    -0.19630000
opls_750-81    N    0.55077010    0.44113015    0.00000000    -0.19630000
opls_750-82    N    0.55887009    0.10963998    0.00000000    -0.19630000
opls_750-83    N    0.89035981    0.44922986    0.00000000    -0.19630000
