#======================================================================
# Crystal Data Generated By AuToFF
#----------------------------------------------------------------------

data_AuToFF_phase_1

_cell_length_a                         45.8218
_cell_length_b                         45.8218
_cell_length_c                         15.0000
_cell_angle_alpha                      90.00
_cell_angle_beta                       90.00
_cell_angle_gamma                      120.00
_symmetry_space_group_name_H-M_alt     'P 1'
_symmetry_space_group_IT_number        1

loop_
_space_group_symop_operation_xyz
   'x, y, z'

loop_
   _atom_site_label
   _atom_site_type_symbol
   _atom_site_fract_x
   _atom_site_fract_y
   _atom_site_fract_z
   _atom_site_charge
opls_141-0    C    0.48520990    0.48504996    0.10407000    0.02700000
opls_700-1    C    0.45335003    0.48444995    0.10958000    0.09350000
opls_145-2    C    0.42769011    0.46467012    0.05036000    -0.16660000
opls_145-3    C    0.39915011    0.46706007    0.04820000    -0.16590000
opls_145-4    C    0.39606004    0.48933015    0.10526000    0.22350000
opls_145-5    C    0.42109002    0.50817003    0.16761000    -0.16570000
opls_145-6    C    0.44923993    0.50514001    0.17003000    -0.16660000
opls_700-7    C    0.48231001    0.45203997    0.09906000    0.09780000
opls_145-8    C    0.45519009    0.42493002    0.14109000    -0.16580000
opls_145-9    C    0.45143016    0.39338011    0.13944000    -0.19360000
opls_145-10    C    0.47530004    0.38829000    0.09630000    0.22100000
opls_145-11    C    0.50165998    0.41476996    0.05022000    -0.16880000
opls_145-12    C    0.50498999    0.44603007    0.05168000    -0.16660000
opls_142-13    C    0.33949995    0.46724000    0.09275000    0.12020000
opls_700-14    C    0.31043004    0.47090002    0.08618000    0.06270000
opls_145-15    C    0.28065995    0.44644007    0.12452000    -0.16660000
opls_145-16    C    0.25437002    0.45239000    0.13432000    -0.16660000
opls_700-17    C    0.25750989    0.48217995    0.10197000    0.09270000
opls_145-18    C    0.28713999    0.50620016    0.06150000    -0.18770000
opls_145-19    C    0.31355991    0.50057002    0.05276000    -0.18750000
opls_142-20    C    0.49814987    0.35425993    0.10677000    0.12280000
opls_700-21    C    0.49535009    0.32178014    0.10338000    0.06410000
opls_145-22    C    0.52082989    0.31689995    0.13677000    -0.16610000
opls_145-23    C    0.51681999    0.28514995    0.13653000    -0.16660000
opls_700-24    C    0.48724989    0.25837994    0.10391000    0.09280000
opls_145-25    C    0.46178995    0.26334002    0.07046000    -0.18750000
opls_145-26    C    0.46596015    0.29494008    0.06940000    -0.18750000
opls_141-27    C    0.51495001    0.00016002    0.10407000    0.02700000
opls_700-28    C    0.51555012    0.96890016    0.10958000    0.09350000
opls_145-29    C    0.53533003    0.96302004    0.05036000    -0.16660000
opls_145-30    C    0.53294004    0.93209004    0.04820000    -0.16580000
opls_145-31    C    0.51067002    0.90672996    0.10526000    0.22350000
opls_145-32    C    0.49183009    0.91292004    0.16761000    -0.16590000
opls_145-33    C    0.49486011    0.94410002    0.17003000    -0.16660000
opls_700-34    C    0.54795999    0.03027001    0.09906000    0.09780000
opls_145-35    C    0.57506999    0.03025993    0.14109000    -0.16580000
opls_145-36    C    0.60661996    0.05805003    0.13944000    -0.19350000
opls_145-37    C    0.61171004    0.08700990    0.09630000    0.22100000
opls_145-38    C    0.58522989    0.08688995    0.05022000    -0.16880000
opls_145-39    C    0.55397009    0.05895999    0.05168000    -0.16660000
opls_142-40    C    0.53276006    0.87226015    0.09275000    0.12020000
opls_700-41    C    0.52910014    0.83953013    0.08618000    0.06270000
opls_145-42    C    0.55355991    0.83422003    0.12452000    -0.16660000
opls_145-43    C    0.54761002    0.80198015    0.13432000    -0.16660000
opls_700-44    C    0.51782013    0.77533009    0.10197000    0.09270000
opls_145-45    C    0.49380011    0.78094007    0.06150000    -0.18780000
opls_145-46    C    0.49943000    0.81298995    0.05276000    -0.18750000
opls_142-47    C    0.64573996    0.14388990    0.10677000    0.12280000
opls_700-48    C    0.67822007    0.17356999    0.10338000    0.06410000
opls_145-49    C    0.68309994    0.20392996    0.13677000    -0.16620000
opls_145-50    C    0.71485005    0.23166991    0.13653000    -0.16660000
opls_700-51    C    0.74162008    0.22886996    0.10391000    0.09280000
opls_145-52    C    0.73666003    0.19845001    0.07046000    -0.18750000
opls_145-53    C    0.70506009    0.17102002    0.06940000    -0.18750000
opls_141-54    C    0.99984009    0.51479002    0.10407000    0.02700000
opls_700-55    C    0.03109997    0.54665014    0.10958000    0.09350000
opls_145-56    C    0.03697998    0.57231010    0.05036000    -0.16660000
opls_145-57    C    0.06790998    0.60085014    0.04820000    -0.16590000
opls_145-58    C    0.09327006    0.60394014    0.10526000    0.22350000
opls_145-59    C    0.08707989    0.57890993    0.16761000    -0.16590000
opls_145-60    C    0.05589996    0.55075998    0.17003000    -0.16660000
opls_700-61    C    0.96973000    0.51769001    0.09906000    0.09780000
opls_145-62    C    0.96973992    0.54481005    0.14109000    -0.16580000
opls_145-63    C    0.94195001    0.54857011    0.13944000    -0.19360000
opls_145-64    C    0.91299014    0.52470010    0.09630000    0.22100000
opls_145-65    C    0.91311013    0.49834009    0.05022000    -0.16880000
opls_145-66    C    0.94103992    0.49500993    0.05168000    -0.16650000
opls_142-67    C    0.12774011    0.66050011    0.09275000    0.12020000
opls_700-68    C    0.16046994    0.68957010    0.08618000    0.06270000
opls_145-69    C    0.16578005    0.71934015    0.12452000    -0.16660000
opls_145-70    C    0.19802008    0.74563010    0.13432000    -0.16660000
opls_700-71    C    0.22466998    0.74248995    0.10197000    0.09270000
opls_145-72    C    0.21906002    0.71286002    0.06150000    -0.18780000
opls_145-73    C    0.18701009    0.68644003    0.05276000    -0.18750000
opls_142-74    C    0.85611005    0.50184992    0.10677000    0.12280000
opls_700-75    C    0.82642996    0.50465012    0.10338000    0.06410000
opls_145-76    C    0.79606995    0.47917009    0.13677000    -0.16620000
opls_145-77    C    0.76832996    0.48318014    0.13653000    -0.16660000
opls_700-78    C    0.77113003    0.51275010    0.10391000    0.09280000
opls_145-79    C    0.80155002    0.53820997    0.07046000    -0.18750000
opls_145-80    C    0.82898010    0.53404015    0.06940000    -0.18750000
opls_141-81    C    0.51479010    0.51495004    0.10407000    0.02700000
opls_700-82    C    0.54664997    0.51555005    0.10958000    0.09350000
opls_145-83    C    0.57231002    0.53533013    0.05036000    -0.16660000
opls_145-84    C    0.60084989    0.53293993    0.04820000    -0.16590000
opls_145-85    C    0.60394008    0.51067010    0.10526000    0.22350000
opls_145-86    C    0.57890998    0.49182997    0.16761000    -0.16590000
opls_145-87    C    0.55076007    0.49485999    0.17003000    -0.16660000
opls_700-88    C    0.51768999    0.54796003    0.09906000    0.09780000
opls_145-89    C    0.54480991    0.57506998    0.14109000    -0.16580000
opls_145-90    C    0.54856997    0.60662014    0.13944000    -0.19360000
opls_145-91    C    0.52469996    0.61171000    0.09630000    0.22100000
opls_145-92    C    0.49834002    0.58523004    0.05022000    -0.16880000
opls_145-93    C    0.49501001    0.55396993    0.05168000    -0.16660000
opls_142-94    C    0.66050005    0.53276000    0.09275000    0.12020000
opls_700-95    C    0.68956996    0.52909998    0.08618000    0.06270000
opls_145-96    C    0.71934005    0.55355993    0.12452000    -0.16660000
opls_145-97    C    0.74562998    0.54761000    0.13432000    -0.16650000
opls_700-98    C    0.74249011    0.51782005    0.10197000    0.09270000
opls_145-99    C    0.71286013    0.49380009    0.06150000    -0.18780000
opls_145-100    C    0.68644009    0.49942998    0.05276000    -0.18750000
opls_142-101    C    0.50185013    0.64574007    0.10677000    0.12280000
opls_700-102    C    0.50465004    0.67822011    0.10338000    0.06410000
opls_145-103    C    0.47917011    0.68310005    0.13677000    -0.16620000
opls_145-104    C    0.48318001    0.71485005    0.13653000    -0.16660000
opls_700-105    C    0.51275011    0.74162006    0.10391000    0.09290000
opls_145-106    C    0.53821005    0.73665998    0.07046000    -0.18750000
opls_145-107    C    0.53403998    0.70506017    0.06940000    -0.18740000
opls_141-108    C    0.48504999    0.99983998    0.10407000    0.02700000
opls_700-109    C    0.48445000    0.03110009    0.10958000    0.09350000
opls_145-110    C    0.46466997    0.03697996    0.05036000    -0.16660000
opls_145-111    C    0.46705996    0.06790996    0.04820000    -0.16580000
opls_145-112    C    0.48932998    0.09327004    0.10526000    0.22350000
opls_145-113    C    0.50816991    0.08707996    0.16761000    -0.16590000
opls_145-114    C    0.50513989    0.05589998    0.17003000    -0.16660000
opls_700-115    C    0.45204001    0.96972999    0.09906000    0.09780000
opls_145-116    C    0.42493001    0.96974007    0.14109000    -0.16570000
opls_145-117    C    0.39338004    0.94194997    0.13944000    -0.19350000
opls_145-118    C    0.38828996    0.91299010    0.09630000    0.22100000
opls_145-119    C    0.41477011    0.91311005    0.05022000    -0.16880000
opls_145-120    C    0.44602991    0.94104001    0.05168000    -0.16660000
opls_142-121    C    0.46724006    0.12774010    0.09275000    0.12020000
opls_700-122    C    0.47089998    0.16047012    0.08618000    0.06270000
opls_145-123    C    0.44644009    0.16577997    0.12452000    -0.16660000
opls_145-124    C    0.45239010    0.19802010    0.13432000    -0.16660000
opls_700-125    C    0.48217987    0.22466991    0.10197000    0.09270000
opls_145-126    C    0.50619989    0.21905993    0.06150000    -0.18780000
opls_145-127    C    0.50057000    0.18701005    0.05276000    -0.18750000
opls_142-128    C    0.35426004    0.85611010    0.10677000    0.12280000
opls_700-129    C    0.32177993    0.82643001    0.10338000    0.06410000
opls_145-130    C    0.31690006    0.79607004    0.13677000    -0.16620000
opls_145-131    C    0.28514995    0.76833009    0.13653000    -0.16660000
opls_700-132    C    0.25837992    0.77113004    0.10391000    0.09290000
opls_145-133    C    0.26333997    0.80154999    0.07046000    -0.18750000
opls_145-134    C    0.29493991    0.82897998    0.06940000    -0.18740000
opls_141-135    C    0.00015991    0.48520998    0.10407000    0.02700000
opls_700-136    C    0.96890015    0.45335011    0.10958000    0.09350000
opls_145-137    C    0.96302014    0.42769016    0.05036000    -0.16660000
opls_145-138    C    0.93209015    0.39915011    0.04820000    -0.16590000
opls_145-139    C    0.90673006    0.39606011    0.10526000    0.22370000
opls_145-140    C    0.91292011    0.42109007    0.16761000    -0.16590000
opls_145-141    C    0.94410004    0.44924002    0.17003000    -0.16660000
opls_700-142    C    0.03027000    0.48230999    0.09906000    0.09780000
opls_145-143    C    0.03026008    0.45518995    0.14109000    -0.16580000
opls_145-144    C    0.05805012    0.45143014    0.13944000    -0.19340000
opls_145-145    C    0.08700999    0.47530015    0.09630000    0.22100000
opls_145-146    C    0.08688987    0.50165991    0.05022000    -0.16880000
opls_145-147    C    0.05896008    0.50499007    0.05168000    -0.16660000
opls_142-148    C    0.87226001    0.33950015    0.09275000    0.12020000
opls_700-149    C    0.83953006    0.31042990    0.08618000    0.06270000
opls_145-150    C    0.83422008    0.28066010    0.12452000    -0.16660000
opls_145-151    C    0.80197992    0.25436990    0.13432000    -0.16660000
opls_700-152    C    0.77533002    0.25751005    0.10197000    0.09280000
opls_145-153    C    0.78093998    0.28713998    0.06150000    -0.18780000
opls_145-154    C    0.81298991    0.31355997    0.05276000    -0.18740000
opls_142-155    C    0.14388995    0.49815008    0.10677000    0.12280000
opls_700-156    C    0.17357016    0.49535013    0.10338000    0.06430000
opls_145-157    C    0.20393018    0.52083016    0.13677000    -0.16620000
opls_145-158    C    0.23167017    0.51682012    0.13653000    -0.16660000
opls_700-159    C    0.22887009    0.48725016    0.10391000    0.09280000
opls_145-160    C    0.19844998    0.46179003    0.07046000    -0.18750000
opls_145-161    C    0.17102002    0.46596010    0.06940000    -0.18750000
opls_146-162    H    0.46991995    0.51997992    0.21575000    0.10890000
opls_146-163    H    0.43127996    0.44846009    0.00347000    0.11310000
opls_146-164    H    0.37963003    0.45345016    0.99812000    0.13110000
opls_146-165    H    0.41739010    0.52476007    0.21263000    0.10960000
opls_146-166    H    0.43704993    0.42932991    0.17705000    0.10850000
opls_146-167    H    0.43088017    0.37226015    0.17415000    0.11240000
opls_146-168    H    0.51888003    0.40978997    0.01164000    0.10850000
opls_146-169    H    0.52589991    0.46675994    0.01693000    0.11340000
opls_144-170    H    0.33590999    0.44164001    0.09960000    0.06270000
opls_146-171    H    0.27940999    0.42384013    0.15220000    0.10840000
opls_146-172    H    0.23120996    0.43439003    0.16806000    0.10910000
opls_146-173    H    0.28823017    0.52871014    0.03374000    0.10890000
opls_146-174    H    0.33725014    0.51868011    0.02141000    0.10860000
opls_144-175    H    0.52313995    0.37635991    0.12070000    0.06310000
opls_146-176    H    0.54332998    0.33819001    0.16509000    0.10830000
opls_146-177    H    0.53607999    0.28037005    0.16363000    0.11010000
opls_146-178    H    0.43898990    0.24175991    0.04471000    0.11000000
opls_146-179    H    0.44693007    0.30037013    0.04400000    0.11200000
opls_146-180    H    0.48002004    0.94994007    0.21575000    0.10880000
opls_146-181    H    0.55153991    0.98282003    0.00347000    0.11310000
opls_146-182    H    0.54655015    0.92618018    0.99812000    0.13100000
opls_146-183    H    0.47524018    0.89263016    0.21263000    0.10960000
opls_146-184    H    0.57066988    0.00771996    0.17705000    0.10850000
opls_146-185    H    0.62774003    0.05862005    0.17415000    0.11240000
opls_146-186    H    0.59020989    0.10908997    0.01164000    0.10850000
opls_146-187    H    0.53324005    0.05913992    0.01693000    0.11340000
opls_144-188    H    0.55836009    0.89427017    0.09960000    0.06280000
opls_146-189    H    0.57616004    0.85557007    0.15220000    0.10840000
opls_146-190    H    0.56560988    0.79681999    0.16806000    0.10860000
opls_146-191    H    0.47129001    0.75951998    0.03374000    0.10890000
opls_146-192    H    0.48131990    0.81856994    0.02141000    0.10860000
opls_144-193    H    0.62364013    0.14678007    0.12070000    0.06310000
opls_146-194    H    0.66180995    0.20514006    0.16509000    0.10830000
opls_146-195    H    0.71963011    0.25571002    0.16363000    0.11000000
opls_146-196    H    0.75823994    0.19723009    0.04471000    0.11010000
opls_146-197    H    0.69962994    0.14656007    0.04400000    0.11200000
opls_146-198    H    0.05006001    0.53008000    0.21575000    0.10880000
opls_146-199    H    0.01718003    0.56872013    0.00347000    0.11310000
opls_146-200    H    0.07382008    0.62037017    0.99812000    0.13100000
opls_146-201    H    0.10737007    0.58261001    0.21263000    0.10960000
opls_146-202    H    0.99227997    0.56295013    0.17705000    0.10850000
opls_146-203    H    0.94137992    0.56912005    0.17415000    0.11240000
opls_146-204    H    0.89091008    0.48112005    0.01164000    0.10850000
opls_146-205    H    0.94086005    0.47410014    0.01693000    0.11340000
opls_144-206    H    0.10573005    0.66409007    0.09960000    0.06270000
opls_146-207    H    0.14443009    0.72059006    0.15220000    0.10840000
opls_146-208    H    0.20317994    0.76878999    0.16806000    0.10860000
opls_146-209    H    0.24048017    0.71177013    0.03374000    0.10900000
opls_146-210    H    0.18142997    0.66274994    0.02141000    0.10870000
opls_144-211    H    0.85321992    0.47686002    0.12070000    0.06310000
opls_146-212    H    0.79486007    0.45666994    0.16509000    0.10840000
opls_146-213    H    0.74428990    0.46391992    0.16363000    0.11000000
opls_146-214    H    0.80276995    0.56101000    0.04471000    0.11000000
opls_146-215    H    0.85344012    0.55307004    0.04400000    0.11200000
opls_146-216    H    0.53008005    0.48002008    0.21575000    0.10890000
opls_146-217    H    0.56872016    0.55154016    0.00347000    0.11310000
opls_146-218    H    0.62037010    0.54655010    0.99812000    0.13110000
opls_146-219    H    0.58260990    0.47523993    0.21263000    0.10960000
opls_146-220    H    0.56295007    0.57067009    0.17705000    0.10850000
opls_146-221    H    0.56911995    0.62774010    0.17415000    0.11240000
opls_146-222    H    0.48111997    0.59021003    0.01164000    0.10850000
opls_146-223    H    0.47410009    0.53324006    0.01693000    0.11340000
opls_144-224    H    0.66409001    0.55835999    0.09960000    0.06270000
opls_146-225    H    0.72059013    0.57616012    0.15220000    0.10840000
opls_146-226    H    0.76879004    0.56560997    0.16806000    0.10910000
opls_146-227    H    0.71176996    0.47129011    0.03374000    0.10890000
opls_146-228    H    0.66274999    0.48132014    0.02141000    0.10860000
opls_144-229    H    0.47686005    0.62364009    0.12070000    0.06310000
opls_146-230    H    0.45667002    0.66180999    0.16509000    0.10840000
opls_146-231    H    0.46392001    0.71962995    0.16363000    0.11010000
opls_146-232    H    0.56101010    0.75824009    0.04471000    0.11000000
opls_146-233    H    0.55307006    0.69963012    0.04400000    0.11200000
opls_146-234    H    0.51997996    0.05005993    0.21575000    0.10880000
opls_146-235    H    0.44846009    0.01717997    0.00347000    0.11310000
opls_146-236    H    0.45344998    0.07382007    0.99812000    0.13100000
opls_146-237    H    0.52475995    0.10737009    0.21263000    0.10960000
opls_146-238    H    0.42933012    0.99228004    0.17705000    0.10850000
opls_146-239    H    0.37225997    0.94137995    0.17415000    0.11240000
opls_146-240    H    0.40979011    0.89091003    0.01164000    0.10850000
opls_146-241    H    0.46675995    0.94086008    0.01693000    0.11340000
opls_144-242    H    0.44164004    0.10573008    0.09960000    0.06270000
opls_146-243    H    0.42383996    0.14442993    0.15220000    0.10850000
opls_146-244    H    0.43439012    0.20318001    0.16806000    0.10860000
opls_146-245    H    0.52870999    0.24048002    0.03374000    0.10890000
opls_146-246    H    0.51868010    0.18143006    0.02141000    0.10860000
opls_144-247    H    0.37635999    0.85322018    0.12070000    0.06310000
opls_146-248    H    0.33819005    0.79485994    0.16509000    0.10830000
opls_146-249    H    0.28036989    0.74428998    0.16363000    0.11000000
opls_146-250    H    0.24176019    0.80277016    0.04471000    0.11010000
opls_146-251    H    0.30037019    0.85344018    0.04400000    0.11210000
opls_146-252    H    0.94993999    0.46992000    0.21575000    0.10880000
opls_146-253    H    0.98282009    0.43128012    0.00347000    0.11310000
opls_146-254    H    0.92618005    0.37963009    0.99812000    0.13100000
opls_146-255    H    0.89262993    0.41738999    0.21263000    0.10960000
opls_146-256    H    0.00772016    0.43705012    0.17705000    0.10850000
opls_146-257    H    0.05862008    0.43087995    0.17415000    0.11240000
opls_146-258    H    0.10908992    0.51887995    0.01164000    0.10850000
opls_146-259    H    0.05914008    0.52590011    0.01693000    0.11340000
opls_144-260    H    0.89426995    0.33590993    0.09960000    0.06270000
opls_146-261    H    0.85556991    0.27940994    0.15220000    0.10840000
opls_146-262    H    0.79682006    0.23121001    0.16806000    0.10860000
opls_146-263    H    0.75951996    0.28823013    0.03374000    0.10900000
opls_146-264    H    0.81857003    0.33725006    0.02141000    0.10860000
opls_144-265    H    0.14678008    0.52313998    0.12070000    0.06310000
opls_146-266    H    0.20513993    0.54333006    0.16509000    0.10830000
opls_146-267    H    0.25571010    0.53608008    0.16363000    0.11010000
opls_146-268    H    0.19723005    0.43899000    0.04471000    0.11000000
opls_146-269    H    0.14655988    0.44692996    0.04400000    0.11210000
opls_750-270    N    0.36848997    0.49321999    0.10057000    -0.17430000
opls_750-271    N    0.47199996    0.35705005    0.09843000    -0.17440000
opls_750-272    N    0.50678004    0.87527002    0.10057000    -0.17440000
opls_750-273    N    0.64295000    0.11494994    0.09843000    -0.17440000
opls_750-274    N    0.12472998    0.63150999    0.10057000    -0.17430000
opls_750-275    N    0.88505003    0.52800001    0.09843000    -0.17440000
opls_750-276    N    0.63151003    0.50678001    0.10057000    -0.17440000
opls_750-277    N    0.52800004    0.64294995    0.09843000    -0.17430000
opls_750-278    N    0.49321996    0.12472998    0.10057000    -0.17440000
opls_750-279    N    0.35705000    0.88505006    0.09843000    -0.17440000
opls_750-280    N    0.87527002    0.36849001    0.10057000    -0.17440000
opls_750-281    N    0.11494997    0.47199999    0.09843000    -0.17440000
