#======================================================================
# Crystal Data Generated By AuToFF
#----------------------------------------------------------------------

data_AuToFF_phase_1

_cell_length_a                         48.7170
_cell_length_b                         44.9347
_cell_length_c                         3.8219
_cell_angle_alpha                      90.00
_cell_angle_beta                       85.20
_cell_angle_gamma                      90.00
_symmetry_space_group_name_H-M_alt     'P 1'
_symmetry_space_group_IT_number        1

loop_
_space_group_symop_operation_xyz
   'x, y, z'

loop_
   _atom_site_label
   _atom_site_type_symbol
   _atom_site_fract_x
   _atom_site_fract_y
   _atom_site_fract_z
   _atom_site_charge
opls_700-0    C    0.02810002    0.97248007    0.59357121    0.03480000
opls_145-1    C    0.01349009    0.94560996    0.54040053    -0.11620000
opls_700-2    C    0.05597009    0.97257999    0.68245945    0.03590000
opls_700-3    C    0.07374996    0.94543994    0.68933094    0.06940000
opls_145-4    C    0.10034007    0.94607998    0.51091903    -0.12460000
opls_145-5    C    0.11781998    0.92151989    0.51479983    -0.12820000
opls_700-6    C    0.10920012    0.89514006    0.69043899    0.05750000
opls_145-7    C    0.08279000    0.89450002    0.86973052    -0.12810000
opls_145-8    C    0.06563997    0.91943999    0.87428876    -0.12540000
opls_145-9    C    0.25589011    0.77637995    0.34775987    -0.12670000
opls_145-10    C    0.27516004    0.75251999    0.32764954    -0.12540000
opls_700-11    C    0.26847010    0.72442010    0.45946031    0.00490000
opls_716-12    C    0.24097011    0.71984992    0.62119895    0.10820000
opls_716-13    C    0.22139012    0.74407996    0.64092068    0.10820000
opls_700-14    C    0.22923999    0.77296010    0.50032953    0.00480000
opls_700-15    C    0.20916999    0.79759006    0.52533944    0.06380000
opls_700-16    C    0.28838001    0.69964994    0.44169999    0.06640000
opls_145-17    C    0.18158998    0.79318990    0.45336078    -0.12820000
opls_145-18    C    0.16286992    0.81678992    0.47697907    -0.18090000
opls_145-19    C    0.17122002    0.84552005    0.57400965    0.19550000
opls_145-20    C    0.19904994    0.84997007    0.63675105    -0.17610000
opls_145-21    C    0.21763009    0.82628993    0.61659083    -0.12840000
opls_145-22    C    0.31571012    0.70484993    0.51556916    -0.12710000
opls_145-23    C    0.33507011    0.68185990    0.49634107    -0.18000000
opls_145-24    C    0.32749009    0.65280997    0.40147933    0.20050000
opls_145-25    C    0.29988005    0.64751005    0.33426109    -0.18120000
opls_145-26    C    0.28064999    0.67060000    0.35002061    -0.12680000
opls_142-27    C    0.12719002    0.86869991    0.68827015    0.08250000
opls_700-28    C    0.44411993    0.52742001    0.31471003    0.02890000
opls_700-29    C    0.47195009    0.52751993    0.40501879    0.03480000
opls_145-30    C    0.48653005    0.55440005    0.45890891    -0.11630000
opls_700-31    C    0.42628994    0.44548000    0.30821927    0.06940000
opls_145-32    C    0.43430002    0.41942997    0.12372095    -0.12720000
opls_145-33    C    0.41697004    0.39462999    0.12654884    -0.12820000
opls_700-34    C    0.39048006    0.39549991    0.30352975    0.05750000
opls_145-35    C    0.38202002    0.42187997    0.48011942    -0.12840000
opls_145-36    C    0.39967007    0.44628005    0.48584872    -0.12670000
opls_142-37    C    0.37215010    0.36935998    0.30078062    0.08250000
opls_700-38    C    0.97189998    0.97248007    0.40642879    0.03480000
opls_145-39    C    0.98651012    0.94560996    0.45959947    -0.11620000
opls_700-40    C    0.94402991    0.97257999    0.31754055    0.03590000
opls_700-41    C    0.92625004    0.94543994    0.31066906    0.06940000
opls_145-42    C    0.89965993    0.94607998    0.48908097    -0.12460000
opls_145-43    C    0.88218002    0.92151989    0.48520017    -0.12820000
opls_700-44    C    0.89080008    0.89514006    0.30956101    0.05750000
opls_145-45    C    0.91721000    0.89450002    0.13026948    -0.12820000
opls_145-46    C    0.93436003    0.91943999    0.12571124    -0.12540000
opls_145-47    C    0.74411009    0.77637995    0.65224013    -0.12670000
opls_145-48    C    0.72483996    0.75251999    0.67235046    -0.12540000
opls_700-49    C    0.73153011    0.72442010    0.54053969    0.00490000
opls_716-50    C    0.75903009    0.71984992    0.37880105    0.10820000
opls_716-51    C    0.77861009    0.74407996    0.35907932    0.10820000
opls_700-52    C    0.77076001    0.77296010    0.49967047    0.00480000
opls_700-53    C    0.79083001    0.79759006    0.47466056    0.06380000
opls_700-54    C    0.71161999    0.69964994    0.55830001    0.06640000
opls_145-55    C    0.81841002    0.79318990    0.54663922    -0.12820000
opls_145-56    C    0.83713008    0.81678992    0.52302093    -0.18090000
opls_145-57    C    0.82877998    0.84552005    0.42599035    0.19550000
opls_145-58    C    0.80095006    0.84997007    0.36324895    -0.17610000
opls_145-59    C    0.78237012    0.82628993    0.38340917    -0.12840000
opls_145-60    C    0.68429009    0.70484993    0.48443084    -0.12710000
opls_145-61    C    0.66493010    0.68185990    0.50365893    -0.18010000
opls_145-62    C    0.67251011    0.65280997    0.59852067    0.20050000
opls_145-63    C    0.70011995    0.64751005    0.66573891    -0.18120000
opls_145-64    C    0.71935001    0.67060000    0.64997939    -0.12690000
opls_142-65    C    0.87280998    0.86869991    0.31172985    0.08250000
opls_700-66    C    0.55588007    0.52742001    0.68528997    0.02890000
opls_700-67    C    0.52804991    0.52751993    0.59498121    0.03480000
opls_145-68    C    0.51346995    0.55440005    0.54109109    -0.11630000
opls_700-69    C    0.57371006    0.44548000    0.69178073    0.06940000
opls_145-70    C    0.56569998    0.41942997    0.87627905    -0.12720000
opls_145-71    C    0.58302996    0.39462999    0.87345116    -0.12820000
opls_700-72    C    0.60951994    0.39549991    0.69647025    0.05750000
opls_145-73    C    0.61797998    0.42187997    0.51988058    -0.12840000
opls_145-74    C    0.60032993    0.44628005    0.51415128    -0.12670000
opls_142-75    C    0.62785011    0.36935998    0.69921938    0.08250000
opls_700-76    C    0.97189998    0.02751993    0.40642879    0.03480000
opls_145-77    C    0.98651012    0.05439004    0.45959947    -0.11620000
opls_700-78    C    0.94402991    0.02742001    0.31754055    0.03590000
opls_700-79    C    0.92625004    0.05456006    0.31066906    0.06940000
opls_145-80    C    0.89965993    0.05392002    0.48908097    -0.12460000
opls_145-81    C    0.88218002    0.07848011    0.48520017    -0.12820000
opls_700-82    C    0.89080008    0.10485994    0.30956101    0.05750000
opls_145-83    C    0.91721000    0.10549998    0.13026948    -0.12820000
opls_145-84    C    0.93436003    0.08056001    0.12571124    -0.12540000
opls_145-85    C    0.74411009    0.22362005    0.65224013    -0.12670000
opls_145-86    C    0.72483996    0.24748001    0.67235046    -0.12540000
opls_700-87    C    0.73153011    0.27557990    0.54053969    0.00490000
opls_716-88    C    0.75903009    0.28015008    0.37880105    0.10820000
opls_716-89    C    0.77861009    0.25592004    0.35907932    0.10820000
opls_700-90    C    0.77076001    0.22703990    0.49967047    0.00480000
opls_700-91    C    0.79083001    0.20240994    0.47466056    0.06380000
opls_700-92    C    0.71161999    0.30035006    0.55830001    0.06640000
opls_145-93    C    0.81841002    0.20681010    0.54663922    -0.12820000
opls_145-94    C    0.83713008    0.18321008    0.52302093    -0.18090000
opls_145-95    C    0.82877998    0.15447995    0.42599035    0.19550000
opls_145-96    C    0.80095006    0.15002993    0.36324895    -0.17610000
opls_145-97    C    0.78237012    0.17371007    0.38340917    -0.12840000
opls_145-98    C    0.68429009    0.29515007    0.48443084    -0.12710000
opls_145-99    C    0.66493010    0.31814010    0.50365893    -0.18010000
opls_145-100    C    0.67251011    0.34719003    0.59852067    0.20050000
opls_145-101    C    0.70011995    0.35248995    0.66573891    -0.18120000
opls_145-102    C    0.71935001    0.32940000    0.64997939    -0.12690000
opls_142-103    C    0.87280998    0.13130009    0.31172985    0.08250000
opls_700-104    C    0.55588007    0.47257999    0.68528997    0.02890000
opls_700-105    C    0.52804991    0.47248007    0.59498121    0.03480000
opls_145-106    C    0.51346995    0.44559995    0.54109109    -0.11630000
opls_700-107    C    0.57371006    0.55452000    0.69178073    0.06940000
opls_145-108    C    0.56569998    0.58057003    0.87627905    -0.12720000
opls_145-109    C    0.58302996    0.60537001    0.87345116    -0.12820000
opls_700-110    C    0.60951994    0.60450009    0.69647025    0.05750000
opls_145-111    C    0.61797998    0.57812003    0.51988058    -0.12840000
opls_145-112    C    0.60032993    0.55371995    0.51415128    -0.12670000
opls_142-113    C    0.62785011    0.63064002    0.69921938    0.08250000
opls_700-114    C    0.02810002    0.02751993    0.59357121    0.03480000
opls_145-115    C    0.01349009    0.05439004    0.54040053    -0.11620000
opls_700-116    C    0.05597009    0.02742001    0.68245945    0.03590000
opls_700-117    C    0.07374996    0.05456006    0.68933094    0.06940000
opls_145-118    C    0.10034007    0.05392002    0.51091903    -0.12460000
opls_145-119    C    0.11781998    0.07848011    0.51479983    -0.12820000
opls_700-120    C    0.10920012    0.10485994    0.69043899    0.05750000
opls_145-121    C    0.08279000    0.10549998    0.86973052    -0.12820000
opls_145-122    C    0.06563997    0.08056001    0.87428876    -0.12530000
opls_145-123    C    0.25589011    0.22362005    0.34775987    -0.12670000
opls_145-124    C    0.27516004    0.24748001    0.32764954    -0.12540000
opls_700-125    C    0.26847010    0.27557990    0.45946031    0.00490000
opls_716-126    C    0.24097011    0.28015008    0.62119895    0.10820000
opls_716-127    C    0.22139012    0.25592004    0.64092068    0.10820000
opls_700-128    C    0.22923999    0.22703990    0.50032953    0.00480000
opls_700-129    C    0.20916999    0.20240994    0.52533944    0.06380000
opls_700-130    C    0.28838001    0.30035006    0.44169999    0.06640000
opls_145-131    C    0.18158998    0.20681010    0.45336078    -0.12820000
opls_145-132    C    0.16286992    0.18321008    0.47697907    -0.18090000
opls_145-133    C    0.17122002    0.15447995    0.57400965    0.19550000
opls_145-134    C    0.19904994    0.15002993    0.63675105    -0.17610000
opls_145-135    C    0.21763009    0.17371007    0.61659083    -0.12830000
opls_145-136    C    0.31571012    0.29515007    0.51556916    -0.12710000
opls_145-137    C    0.33507011    0.31814010    0.49634107    -0.18010000
opls_145-138    C    0.32749009    0.34719003    0.40147933    0.20060000
opls_145-139    C    0.29988005    0.35248995    0.33426109    -0.18120000
opls_145-140    C    0.28064999    0.32940000    0.35002061    -0.12690000
opls_142-141    C    0.12719002    0.13130009    0.68827015    0.08250000
opls_700-142    C    0.44411993    0.47257999    0.31471003    0.02890000
opls_700-143    C    0.47195009    0.47248007    0.40501879    0.03480000
opls_145-144    C    0.48653005    0.44559995    0.45890891    -0.11630000
opls_700-145    C    0.42628994    0.55452000    0.30821927    0.06940000
opls_145-146    C    0.43430002    0.58057003    0.12372095    -0.12710000
opls_145-147    C    0.41697004    0.60537001    0.12654884    -0.12820000
opls_700-148    C    0.39048006    0.60450009    0.30352975    0.05750000
opls_145-149    C    0.38202002    0.57812003    0.48011942    -0.12840000
opls_145-150    C    0.39967007    0.55371995    0.48584872    -0.12670000
opls_142-151    C    0.37215010    0.63064002    0.30078062    0.08250000
opls_700-152    C    0.01396003    0.00000000    0.54982946    0.00090000
opls_145-153    C    0.06859010    0.00000000    0.73767031    -0.16880000
opls_700-154    C    0.98603997    0.00000000    0.45017054    0.00090000
opls_145-155    C    0.93141010    0.00000000    0.26232969    -0.16880000
opls_700-156    C    0.48606001    0.50000000    0.44940121    -0.00310000
opls_145-157    C    0.43154006    0.50000000    0.25823095    -0.16880000
opls_700-158    C    0.51393999    0.50000000    0.55059879    -0.00310000
opls_145-159    C    0.56845994    0.50000000    0.74176905    -0.16880000
opls_750-160    N    0.15335002    0.87036989    0.59014990    -0.29180000
opls_750-161    N    0.65409994    0.62842992    0.60880034    -0.29360000
opls_750-162    N    0.80324995    0.26225011    0.19780018    -0.36210000
opls_750-163    N    0.76812009    0.30567001    0.23263026    -0.36200000
opls_750-164    N    0.84664998    0.87036989    0.40985010    -0.29170000
opls_750-165    N    0.34590006    0.62842992    0.39119966    -0.29350000
opls_750-166    N    0.19675005    0.26225011    0.80219982    -0.36210000
opls_750-167    N    0.23188012    0.30567001    0.76736974    -0.36200000
opls_750-168    N    0.84664998    0.12963011    0.40985010    -0.29180000
opls_750-169    N    0.34590006    0.37157008    0.39119966    -0.29360000
opls_750-170    N    0.19675005    0.73774989    0.80219982    -0.36200000
opls_750-171    N    0.23188012    0.69432999    0.76736974    -0.36210000
opls_750-172    N    0.15335002    0.12963011    0.59014990    -0.29180000
opls_750-173    N    0.65409994    0.37157008    0.60880034    -0.29360000
opls_750-174    N    0.80324995    0.73774989    0.19780018    -0.36210000
opls_750-175    N    0.76812009    0.69432999    0.23263026    -0.36200000
opls_202-176    S    0.80294004    0.30031001    0.06221101    0.45070000
opls_202-177    S    0.19705996    0.30031001    0.93778899    0.45070000
opls_202-178    S    0.19705996    0.69968999    0.93778899    0.45070000
opls_202-179    S    0.80294004    0.69968999    0.06221101    0.45070000
opls_146-180    H    0.10738992    0.96570000    0.36162101    0.10830000
opls_146-181    H    0.13813997    0.92267001    0.37321878    0.11100000
opls_146-182    H    0.07571001    0.87461005    0.01320996    0.10940000
opls_146-183    H    0.04596004    0.91846991    0.02940010    0.11910000
opls_146-184    H    0.26232007    0.79767997    0.23265914    0.11200000
opls_146-185    H    0.29555009    0.75656007    0.19775029    0.11310000
opls_146-186    H    0.17463998    0.77146993    0.37036988    0.11100000
opls_146-187    H    0.14185007    0.81292008    0.41202944    0.11290000
opls_146-188    H    0.20605994    0.87198001    0.70850915    0.11100000
opls_146-189    H    0.23881994    0.83014997    0.67700060    0.10880000
opls_146-190    H    0.32200003    0.72697003    0.59551948    0.11070000
opls_146-191    H    0.35591002    0.68647994    0.56259042    0.11430000
opls_146-192    H    0.29354002    0.62523996    0.26206974    0.10900000
opls_146-193    H    0.25976007    0.66597997    0.28450908    0.11240000
opls_144-194    H    0.11755002    0.84740991    0.78149870    0.06360000
opls_146-195    H    0.42394002    0.37473000    0.98259940    0.10920000
opls_146-196    H    0.36166010    0.42319010    0.62027995    0.11060000
opls_146-197    H    0.39270007    0.46592989    0.63520976    0.10940000
opls_144-198    H    0.38156996    0.34789995    0.20941108    0.06160000
opls_146-199    H    0.52314005    0.57579999    0.56516887    0.10720000
opls_146-200    H    0.02316010    0.92420001    0.56374049    0.10070000
opls_146-201    H    0.45402004    0.41831992    0.96959950    0.11760000
opls_146-202    H    0.89261008    0.96570000    0.63837899    0.10840000
opls_146-203    H    0.86186003    0.92267001    0.62678122    0.11100000
opls_146-204    H    0.92428999    0.87461005    0.98679004    0.10930000
opls_146-205    H    0.95403996    0.91846991    0.97059990    0.11910000
opls_146-206    H    0.73767993    0.79767997    0.76734086    0.11210000
opls_146-207    H    0.70445012    0.75656007    0.80224971    0.11310000
opls_146-208    H    0.82536002    0.77146993    0.62963012    0.11110000
opls_146-209    H    0.85814993    0.81292008    0.58797056    0.11290000
opls_146-210    H    0.79394006    0.87198001    0.29149085    0.11100000
opls_146-211    H    0.76118006    0.83014997    0.32299940    0.10880000
opls_146-212    H    0.67799997    0.72697003    0.40448052    0.11070000
opls_146-213    H    0.64408998    0.68647994    0.43740958    0.11430000
opls_146-214    H    0.70645998    0.62523996    0.73793026    0.10900000
opls_146-215    H    0.74023993    0.66597997    0.71549092    0.11240000
opls_144-216    H    0.88244998    0.84740991    0.21850130    0.06360000
opls_146-217    H    0.57605998    0.37473000    0.01740060    0.10920000
opls_146-218    H    0.63834011    0.42319010    0.37972005    0.11070000
opls_146-219    H    0.60729993    0.46592989    0.36479024    0.10940000
opls_144-220    H    0.61843004    0.34789995    0.79058892    0.06160000
opls_146-221    H    0.47685995    0.57579999    0.43483113    0.10720000
opls_146-222    H    0.97684010    0.92420001    0.43625951    0.10070000
opls_146-223    H    0.54597996    0.41831992    0.03040050    0.11750000
opls_146-224    H    0.89261008    0.03430000    0.63837899    0.10830000
opls_146-225    H    0.86186003    0.07732999    0.62678122    0.11100000
opls_146-226    H    0.92428999    0.12538995    0.98679004    0.10930000
opls_146-227    H    0.95403996    0.08153009    0.97059990    0.11910000
opls_146-228    H    0.73767993    0.20232003    0.76734086    0.11200000
opls_146-229    H    0.70445012    0.24343993    0.80224971    0.11310000
opls_146-230    H    0.82536002    0.22853007    0.62963012    0.11110000
opls_146-231    H    0.85814993    0.18707992    0.58797056    0.11290000
opls_146-232    H    0.79394006    0.12801999    0.29149085    0.11100000
opls_146-233    H    0.76118006    0.16985003    0.32299940    0.10880000
opls_146-234    H    0.67799997    0.27302997    0.40448052    0.11070000
opls_146-235    H    0.64408998    0.31352006    0.43740958    0.11430000
opls_146-236    H    0.70645998    0.37476004    0.73793026    0.10900000
opls_146-237    H    0.74023993    0.33402003    0.71549092    0.11250000
opls_144-238    H    0.88244998    0.15259009    0.21850130    0.06360000
opls_146-239    H    0.57605998    0.62527000    0.01740060    0.10920000
opls_146-240    H    0.63834011    0.57680990    0.37972005    0.11060000
opls_146-241    H    0.60729993    0.53407011    0.36479024    0.10940000
opls_144-242    H    0.61843004    0.65210005    0.79058892    0.06160000
opls_146-243    H    0.47685995    0.42420001    0.43483113    0.10720000
opls_146-244    H    0.97684010    0.07579999    0.43625951    0.10070000
opls_146-245    H    0.54597996    0.58168008    0.03040050    0.11750000
opls_146-246    H    0.10738992    0.03430000    0.36162101    0.10830000
opls_146-247    H    0.13813997    0.07732999    0.37321878    0.11100000
opls_146-248    H    0.07571001    0.12538995    0.01320996    0.10940000
opls_146-249    H    0.04596004    0.08153009    0.02940010    0.11910000
opls_146-250    H    0.26232007    0.20232003    0.23265914    0.11200000
opls_146-251    H    0.29555009    0.24343993    0.19775029    0.11310000
opls_146-252    H    0.17463998    0.22853007    0.37036988    0.11100000
opls_146-253    H    0.14185007    0.18707992    0.41202944    0.11290000
opls_146-254    H    0.20605994    0.12801999    0.70850915    0.11100000
opls_146-255    H    0.23881994    0.16985003    0.67700060    0.10880000
opls_146-256    H    0.32200003    0.27302997    0.59551948    0.11070000
opls_146-257    H    0.35591002    0.31352006    0.56259042    0.11430000
opls_146-258    H    0.29354002    0.37476004    0.26206974    0.10900000
opls_146-259    H    0.25976007    0.33402003    0.28450908    0.11250000
opls_144-260    H    0.11755002    0.15259009    0.78149870    0.06360000
opls_146-261    H    0.42394002    0.62527000    0.98259940    0.10920000
opls_146-262    H    0.36166010    0.57680990    0.62027995    0.11060000
opls_146-263    H    0.39270007    0.53407011    0.63520976    0.10940000
opls_144-264    H    0.38156996    0.65210005    0.20941108    0.06160000
opls_146-265    H    0.52314005    0.42420001    0.56516887    0.10730000
opls_146-266    H    0.02316010    0.07579999    0.56374049    0.10070000
opls_146-267    H    0.45402004    0.58168008    0.96959950    0.11750000
opls_146-268    H    0.08948999    0.00000000    0.81888885    0.11040000
opls_146-269    H    0.91051001    0.00000000    0.18111115    0.11040000
opls_146-270    H    0.41067991    0.50000000    0.17568118    0.11040000
opls_146-271    H    0.58932009    0.50000000    0.82431882    0.11040000
