#======================================================================
# Crystal Data Generated By AuToFF
#----------------------------------------------------------------------

data_AuToFF_phase_1

_cell_length_a                         37.5355
_cell_length_b                         37.5355
_cell_length_c                         3.8977
_cell_angle_alpha                      90.00
_cell_angle_beta                       90.00
_cell_angle_gamma                      120.00
_symmetry_space_group_name_H-M_alt     'P 1'
_symmetry_space_group_IT_number        1

loop_
_space_group_symop_operation_xyz
   'x, y, z'

loop_
   _atom_site_label
   _atom_site_type_symbol
   _atom_site_fract_x
   _atom_site_fract_y
   _atom_site_fract_z
   _atom_site_charge
opls_179-0    O    0.58423013    0.55936007    0.50267081    -0.18830000
opls_179-1    O    0.44064001    0.02486995    0.50267081    -0.18830000
opls_179-2    O    0.97512986    0.41576998    0.50267081    -0.18830000
opls_179-3    O    0.41576987    0.44063993    0.50267081    -0.18830000
opls_179-4    O    0.55935984    0.97512974    0.50267081    -0.18830000
opls_179-5    O    0.02487014    0.58423002    0.50267081    -0.18830000
opls_181-6    C    0.61111003    0.55942990    0.76209046    -0.18990000
opls_142-7    C    0.55780001    0.47032981    0.46569002    0.07260000
opls_700-8    C    0.64678995    0.28985009    0.37770993    0.07280000
opls_145-9    C    0.68996010    0.31371994    0.37662981    -0.16890000
opls_700-10    C    0.61812999    0.37418009    0.38855992    0.07160000
opls_145-11    C    0.63301010    0.41219010    0.55793930    -0.12450000
opls_145-12    C    0.60957015    0.43161010    0.57159094    -0.15920000
opls_145-13    C    0.57033992    0.41314990    0.42077892    0.19960000
opls_145-14    C    0.55503993    0.37509990    0.25776997    -0.16170000
opls_145-15    C    0.57884995    0.35609982    0.23608025    -0.12490000
opls_700-16    C    0.52877978    0.48603980    0.50656028    -0.03080000
opls_145-17    C    0.48623998    0.45804003    0.51431100    -0.23470000
opls_166-18    C    0.45743993    0.47128007    0.52180004    0.22260000
opls_181-19    C    0.44057011    0.05168012    0.76209046    -0.18990000
opls_142-20    C    0.52966990    0.08746997    0.46569002    0.07260000
opls_700-21    C    0.71014985    0.35693995    0.37770993    0.07280000
opls_145-22    C    0.68627986    0.37623998    0.37662981    -0.16890000
opls_700-23    C    0.62581990    0.24395002    0.38855992    0.07150000
opls_145-24    C    0.58781007    0.22082002    0.55793930    -0.12450000
opls_145-25    C    0.56838986    0.17795993    0.57159094    -0.15920000
opls_145-26    C    0.58685015    0.15719006    0.42077892    0.19960000
opls_145-27    C    0.62490005    0.17993983    0.25776997    -0.16170000
opls_145-28    C    0.64389998    0.22275008    0.23608025    -0.12490000
opls_700-29    C    0.51396000    0.04274011    0.50656028    -0.03080000
opls_145-30    C    0.54196004    0.02820003    0.51431100    -0.23470000
opls_166-31    C    0.52872002    0.98615978    0.52180004    0.22260000
opls_181-32    C    0.94832012    0.38888998    0.76209046    -0.18990000
opls_142-33    C    0.91252994    0.44219992    0.46569002    0.07260000
opls_700-34    C    0.64305993    0.35320995    0.37770993    0.07280000
opls_145-35    C    0.62376003    0.31004008    0.37662981    -0.16890000
opls_700-36    C    0.75604984    0.38186989    0.38855992    0.07160000
opls_145-37    C    0.77917983    0.36698988    0.55793930    -0.12450000
opls_145-38    C    0.82203999    0.39042997    0.57159094    -0.15920000
opls_145-39    C    0.84280993    0.42966004    0.42077892    0.19960000
opls_145-40    C    0.82005987    0.44495996    0.25776997    -0.16170000
opls_145-41    C    0.77725007    0.42115010    0.23608025    -0.12490000
opls_700-42    C    0.95725995    0.47122009    0.50656028    -0.03080000
opls_145-43    C    0.97179998    0.51375993    0.51431100    -0.23470000
opls_166-44    C    0.01383990    0.54255984    0.52180004    0.22260000
opls_181-45    C    0.38888997    0.44057010    0.76209046    -0.18990000
opls_142-46    C    0.44219984    0.52966988    0.46569002    0.07260000
opls_700-47    C    0.35321005    0.71014991    0.37770993    0.07280000
opls_145-48    C    0.31003990    0.68628006    0.37662981    -0.16890000
opls_700-49    C    0.38187001    0.62581991    0.38855992    0.07150000
opls_145-50    C    0.36698990    0.58780990    0.55793930    -0.12450000
opls_145-51    C    0.39042985    0.56838990    0.57159094    -0.15920000
opls_145-52    C    0.42965992    0.58684979    0.42077892    0.19960000
opls_145-53    C    0.44495992    0.62489979    0.25776997    -0.16170000
opls_145-54    C    0.42114989    0.64389987    0.23608025    -0.12490000
opls_700-55    C    0.47122007    0.51395989    0.50656028    -0.03080000
opls_145-56    C    0.51376002    0.54195997    0.51431100    -0.23470000
opls_166-57    C    0.54256007    0.52871993    0.52180004    0.22260000
opls_181-58    C    0.55942989    0.94831988    0.76209046    -0.18990000
opls_142-59    C    0.47033010    0.91253003    0.46569002    0.07260000
opls_700-60    C    0.28985015    0.64306005    0.37770993    0.07280000
opls_145-61    C    0.31372014    0.62376002    0.37662981    -0.16890000
opls_700-62    C    0.37418010    0.75604998    0.38855992    0.07150000
opls_145-63    C    0.41218993    0.77917998    0.55793930    -0.12450000
opls_145-64    C    0.43160999    0.82203976    0.57159094    -0.15920000
opls_145-65    C    0.41314985    0.84280994    0.42077892    0.19960000
opls_145-66    C    0.37509980    0.82005986    0.25776997    -0.16170000
opls_145-67    C    0.35610002    0.77724992    0.23608025    -0.12490000
opls_700-68    C    0.48604000    0.95725989    0.50656028    -0.03080000
opls_145-69    C    0.45803996    0.97179997    0.51431100    -0.23470000
opls_166-70    C    0.47127983    0.01383992    0.52180004    0.22260000
opls_181-71    C    0.05167988    0.61111002    0.76209046    -0.18990000
opls_142-72    C    0.08747006    0.55780008    0.46569002    0.07260000
opls_700-73    C    0.35694007    0.64679005    0.37770993    0.07280000
opls_145-74    C    0.37623997    0.68995992    0.37662981    -0.16890000
opls_700-75    C    0.24395001    0.61812980    0.38855992    0.07160000
opls_145-76    C    0.22082002    0.63300981    0.55793930    -0.12450000
opls_145-77    C    0.17796001    0.60957003    0.57159094    -0.15920000
opls_145-78    C    0.15719007    0.57033996    0.42077892    0.19970000
opls_145-79    C    0.17994013    0.55504004    0.25776997    -0.16170000
opls_145-80    C    0.22274993    0.57884990    0.23608025    -0.12490000
opls_700-81    C    0.04274005    0.52877991    0.50656028    -0.03080000
opls_145-82    C    0.02820002    0.48624007    0.51431100    -0.23470000
opls_166-83    C    0.98615995    0.45743985    0.52180004    0.22260000
opls_750-84    N    0.54449010    0.43110005    0.44655053    -0.33550000
opls_750-85    N    0.56889991    0.11338986    0.44655053    -0.33560000
opls_750-86    N    0.88661000    0.45551009    0.44655053    -0.33560000
opls_750-87    N    0.45550990    0.56889995    0.44655053    -0.33560000
opls_750-88    N    0.43109994    0.88660984    0.44655053    -0.33560000
opls_750-89    N    0.11339000    0.54448991    0.44655053    -0.33560000
opls_185-90    H    0.63727998    0.55851994    0.63868948    0.07630000
opls_185-91    H    0.59563001    0.53302981    0.94051107    0.07620000
opls_185-92    H    0.62367995    0.58845992    0.91035996    0.07650000
opls_144-93    H    0.59027986    0.49165987    0.43853042    0.10470000
opls_146-94    H    0.70798988    0.29856983    0.37842061    0.12570000
opls_146-95    H    0.66219995    0.42646008    0.69117941    0.12270000
opls_146-96    H    0.62147983    0.46015991    0.71244067    0.12570000
opls_146-97    H    0.52479988    0.36048999    0.14129102    0.12180000
opls_146-98    H    0.56654997    0.32753986    0.09495087    0.12630000
opls_146-99    H    0.47482992    0.42524003    0.50644996    0.12300000
opls_185-100    H    0.44147991    0.07876007    0.63868948    0.07630000
opls_185-101    H    0.46696997    0.06260002    0.94051107    0.07620000
opls_185-102    H    0.41154007    0.03522012    0.91035996    0.07650000
opls_144-103    H    0.50833997    0.09861998    0.43853042    0.10470000
opls_146-104    H    0.70142986    0.40941990    0.37842061    0.12570000
opls_146-105    H    0.57353997    0.23574002    0.69117941    0.12270000
opls_146-106    H    0.53983996    0.16131997    0.71244067    0.12560000
opls_146-107    H    0.63951010    0.16431013    0.14129102    0.12180000
opls_146-108    H    0.67245999    0.23901011    0.09495087    0.12630000
opls_146-109    H    0.57476001    0.04959008    0.50644996    0.12300000
opls_185-110    H    0.92124011    0.36271999    0.63868948    0.07630000
opls_185-111    H    0.93739986    0.40436987    0.94051107    0.07620000
opls_185-112    H    0.96477998    0.37631996    0.91035996    0.07650000
opls_144-113    H    0.90138002    0.40971984    0.43853042    0.10470000
opls_146-114    H    0.59057985    0.29200995    0.37842061    0.12590000
opls_146-115    H    0.76426008    0.33779990    0.69117941    0.12270000
opls_146-116    H    0.83867979    0.37851981    0.71244067    0.12560000
opls_146-117    H    0.83569002    0.47519988    0.14129102    0.12180000
opls_146-118    H    0.76099004    0.43345003    0.09495087    0.12630000
opls_146-119    H    0.95041007    0.52516989    0.50644996    0.12300000
opls_185-120    H    0.36272002    0.44148006    0.63868948    0.07630000
opls_185-121    H    0.40436984    0.46696989    0.94051107    0.07620000
opls_185-122    H    0.37632005    0.41154008    0.91035996    0.07650000
opls_144-123    H    0.40971999    0.50833982    0.43853042    0.10470000
opls_146-124    H    0.29200997    0.70142986    0.37842061    0.12570000
opls_146-125    H    0.33780005    0.57353992    0.69117941    0.12270000
opls_146-126    H    0.37852017    0.53984009    0.71244067    0.12560000
opls_146-127    H    0.47520012    0.63951001    0.14129102    0.12300000
opls_146-128    H    0.43344988    0.67245983    0.09495087    0.12630000
opls_146-129    H    0.52517008    0.57475997    0.50644996    0.12300000
opls_185-130    H    0.55852009    0.92123993    0.63868948    0.07630000
opls_185-131    H    0.53303003    0.93739998    0.94051107    0.07620000
opls_185-132    H    0.58845993    0.96477988    0.91035996    0.07650000
opls_144-133    H    0.49166003    0.90138002    0.43853042    0.10470000
opls_146-134    H    0.29856999    0.59057979    0.37842061    0.12590000
opls_146-135    H    0.42646003    0.76425998    0.69117941    0.12270000
opls_146-136    H    0.46016004    0.83868003    0.71244067    0.12560000
opls_146-137    H    0.36048990    0.83568987    0.14129102    0.12180000
opls_146-138    H    0.32754001    0.76098989    0.09495087    0.12630000
opls_146-139    H    0.42523999    0.95040992    0.50644996    0.12300000
opls_185-140    H    0.07875989    0.63728001    0.63868948    0.07630000
opls_185-141    H    0.06259998    0.59562982    0.94051107    0.07620000
opls_185-142    H    0.03522002    0.62368004    0.91035996    0.07650000
opls_144-143    H    0.09861983    0.59027985    0.43853042    0.10470000
opls_146-144    H    0.40942015    0.70799005    0.37842061    0.12590000
opls_146-145    H    0.23573977    0.66219979    0.69117941    0.12270000
opls_146-146    H    0.16132006    0.62147988    0.71244067    0.12560000
opls_146-147    H    0.16430983    0.52479981    0.14129102    0.12300000
opls_146-148    H    0.23900996    0.56654997    0.09495087    0.12630000
opls_146-149    H    0.04958978    0.47482980    0.50644996    0.12300000
