#======================================================================
# Crystal Data Generated By AuToFF
#----------------------------------------------------------------------

data_AuToFF_phase_1

_cell_length_a                         22.0467
_cell_length_b                         23.0872
_cell_length_c                         6.2418
_cell_angle_alpha                      85.88
_cell_angle_beta                       85.30
_cell_angle_gamma                      62.51
_symmetry_space_group_name_H-M_alt     'P 1'
_symmetry_space_group_IT_number        1

loop_
_space_group_symop_operation_xyz
   'x, y, z'

loop_
   _atom_site_label
   _atom_site_type_symbol
   _atom_site_fract_x
   _atom_site_fract_y
   _atom_site_fract_z
   _atom_site_charge
opls_145-0    C    0.90819990    0.92838967    0.17697032    0.14560000
opls_768-1    C    0.93475986    0.96076993    0.98720931    0.02420000
opls_145-2    C    0.91234975    0.03405007    0.01373982    -0.15530000
opls_145-3    C    0.84105995    0.06859978    0.12617917    0.22860000
opls_145-4    C    0.84310023    0.04042996    0.35821976    -0.09650000
opls_145-5    C    0.88901998    0.96601984    0.38477922    -0.09690000
opls_142-6    C    0.97235994    0.81908969    0.07972987    0.03220000
opls_700-7    C    0.00090021    0.74644987    0.13360005    -0.05550000
opls_166-8    C    0.96235980    0.72362994    0.02757937    0.18920000
opls_166-9    C    0.08124004    0.70279979    0.10691994    0.21900000
opls_700-10    C    0.98512003    0.65612999    0.02298978    -0.14360000
opls_700-11    C    0.10468980    0.63539003    0.05369966    -0.12070000
opls_166-12    C    0.05537015    0.61089996    0.05298058    0.22780000
opls_143-13    C    0.90373024    0.21203969    0.99280916    0.10200000
opls_181-14    C    0.59062010    0.24124988    0.07210951    -0.17160000
opls_181-15    C    0.79806034    0.44665970    0.51342934    -0.17150000
opls_145-16    C    0.15175988    0.87748986    0.50550976    0.20510000
opls_142-17    C    0.93099003    0.63900986    0.00286025    0.03220000
opls_142-18    C    0.17559996    0.59254966    0.01356930    0.01600000
opls_142-19    C    0.75555012    0.18350008    0.10539008    0.04220000
opls_700-20    C    0.73359986    0.25547988    0.06142942    -0.04780000
opls_166-21    C    0.77971970    0.28016016    0.03436965    0.19770000
opls_166-22    C    0.65906021    0.29714977    0.00365012    0.21830000
opls_145-23    C    0.75926007    0.35101970    0.97757004    -0.04780000
opls_700-24    C    0.63773001    0.37119976    0.01525038    -0.05680000
opls_166-25    C    0.69239000    0.39312996    0.95069045    0.22810000
opls_142-26    C    0.81488991    0.37465977    0.98049947    0.05260000
opls_142-27    C    0.56390017    0.42525964    0.97862052    0.04980000
opls_145-28    C    0.90970006    0.54588984    0.96512039    0.19270000
opls_145-29    C    0.94622001    0.47279968    0.94519999    -0.10090000
opls_142-30    C    0.98500020    0.12193994    0.52771933    0.01600000
opls_700-31    C    0.95333007    0.19117003    0.52907063    -0.16360000
opls_166-32    C    0.99233004    0.22512999    0.53893994    0.18510000
opls_166-33    C    0.88027016    0.22687975    0.52049953    0.22240000
opls_768-34    C    0.83646017    0.58093967    0.97481918    -0.00870000
opls_145-35    C    0.90150989    0.44650986    0.86293000    -0.09790000
opls_145-36    C    0.79520008    0.54869005    0.96541961    -0.16110000
opls_145-37    C    0.83421014    0.47415988    0.99908948    0.23010000
opls_145-38    C    0.43722024    0.45918964    0.99377920    0.23240000
opls_145-39    C    0.42025998    0.52602988    0.98460002    -0.17150000
opls_145-40    C    0.38418997    0.44223980    0.00601972    -0.11000000
opls_768-41    C    0.35196984    0.57542011    0.00128052    -0.01160000
opls_145-42    C    0.31604991    0.49029971    0.01372051    -0.11430000
opls_145-43    C    0.29749002    0.55804997    0.01418060    0.18940000
opls_181-44    C    0.28056031    0.44617969    0.57857000    -0.17160000
opls_181-45    C    0.12957010    0.77435991    0.08633997    -0.17160000
opls_181-46    C    0.86759029    0.78910961    0.80642961    -0.17160000
opls_768-47    C    0.55833999    0.49176006    0.45955915    0.01030000
opls_145-48    C    0.52504012    0.40503008    0.50847940    -0.09570000
opls_145-49    C    0.50606983    0.47235991    0.48080994    0.18940000
opls_181-50    C    0.13365996    0.48619992    0.08573993    -0.17160000
opls_768-51    C    0.18648004    0.90886976    0.58620967    0.01130000
opls_145-52    C    0.15258020    0.97752985    0.60474016    -0.16530000
opls_145-53    C    0.08454011    0.01531015    0.54611952    0.25710000
opls_145-54    C    0.04910008    0.98462991    0.46040050    -0.10120000
opls_145-55    C    0.08640012    0.91617988    0.43507973    -0.13400000
opls_142-56    C    0.22112977    0.75808999    0.60015057    0.04230000
opls_700-57    C    0.23297020    0.68944983    0.56165946    -0.10690000
opls_166-58    C    0.17503980    0.67756005    0.56267937    0.21650000
opls_166-59    C    0.30014014    0.63707988    0.53285909    0.19720000
opls_700-60    C    0.18360982    0.61189004    0.53537026    -0.04780000
opls_700-61    C    0.30951036    0.57255963    0.50819949    -0.12350000
opls_166-62    C    0.25155023    0.56056982    0.50665997    0.19290000
opls_142-63    C    0.12406999    0.59442963    0.56413041    0.03440000
opls_142-64    C    0.38044004    0.51632982    0.47780974    0.04060000
opls_700-65    C    0.96208015    0.29347000    0.50704928    -0.12510000
opls_700-66    C    0.84673996    0.29688982    0.50554998    -0.04780000
opls_166-67    C    0.88963014    0.32956972    0.48927969    0.22780000
opls_142-68    C    0.00888993    0.32559985    0.49460928    0.04250000
opls_142-69    C    0.77086982    0.33660008    0.46004981    0.03700000
opls_145-70    C    0.07907006    0.51169979    0.58473933    0.14450000
opls_145-71    C    0.11782006    0.43632967    0.58111978    -0.10120000
opls_768-72    C    0.00704018    0.54051970    0.48551053    0.01890000
opls_145-73    C    0.08051016    0.41145990    0.51796906    -0.15940000
opls_145-74    C    0.98217988    0.49950003    0.42789049    -0.16040000
opls_145-75    C    0.02182001    0.42720998    0.44335965    0.23610000
opls_145-76    C    0.64666970    0.37802013    0.52729946    0.24200000
opls_145-77    C    0.62731013    0.44480979    0.47557044    -0.16530000
opls_145-78    C    0.59394974    0.35887006    0.53405917    -0.09120000
opls_181-79    C    0.36153993    0.70340002    0.45201923    -0.17160000
opls_181-80    C    0.05609009    0.73480983    0.61459017    -0.15680000
opls_181-81    C    0.07828012    0.18367014    0.79111971    -0.17150000
opls_181-82    C    0.80193020    0.18070968    0.61751959    -0.17160000
opls_181-83    C    0.63256001    0.51399991    0.94212900    -0.17150000
opls_750-84    N    0.17717985    0.80773993    0.48991030    -0.27150000
opls_750-85    N    0.12652032    0.53968964    0.50803058    -0.18210000
opls_750-86    N    0.43561002    0.52251995    0.49482967    -0.26790000
opls_750-87    N    0.05277009    0.08193009    0.56265041    -0.26780000
opls_750-88    N    0.98610996    0.38785982    0.45354909    -0.26650000
opls_750-89    N    0.71859986    0.32952999    0.54806925    -0.20690000
opls_767-90    N    0.25745982    0.87387988    0.62620973    0.52980000
opls_767-91    N    0.95907984    0.60846993    0.50126926    0.52990000
opls_767-92    N    0.54197004    0.55885975    0.41181003    0.52990000
opls_750-93    N    0.95512986    0.86021987    0.23026942    -0.26600000
opls_750-94    N    0.95129995    0.57386973    0.98332915    -0.28270000
opls_750-95    N    0.22966985    0.60480003    0.03727012    -0.26610000
opls_750-96    N    0.81888016    0.13944996    0.12430987    -0.20730000
opls_750-97    N    0.78781010    0.44615003    0.96595048    -0.21350000
opls_750-98    N    0.50751990    0.40838985    0.99123908    -0.21000000
opls_767-99    N    0.00876026    0.92431970    0.93564920    0.52760000
opls_767-100    N    0.79981000    0.65047959    0.98787048    0.52980000
opls_767-101    N    0.34023007    0.64214965    0.00288921    0.52970000
opls_761-102    O    0.89346031    0.62703975    0.51486912    -0.19250000
opls_761-103    O    0.97973007    0.65234987    0.50907944    -0.21050000
opls_179-104    O    0.06958014    0.54462968    0.09902932    -0.16420000
opls_179-105    O    0.11346001    0.73337996    0.97173050    -0.14390000
opls_179-106    O    0.89142016    0.76637981    0.01748967    -0.16600000
opls_180-107    O    0.84303017    0.24415979    0.12161049    -0.13630000
opls_179-108    O    0.61553993    0.28172000    0.15315046    -0.16820000
opls_179-109    O    0.67505991    0.45383967    0.84042926    -0.16000000
opls_761-110    O    0.77200997    0.67540974    0.17277003    -0.19080000
opls_761-111    O    0.77729020    0.68599991    0.81326976    -0.19080000
opls_761-112    O    0.03018996    0.87939984    0.79453979    -0.19770000
opls_761-113    O    0.27836030    0.87979962    0.80849034    -0.19080000
opls_761-114    O    0.30145978    0.85222001    0.46318031    -0.19230000
opls_761-115    O    0.05051985    0.94645996    0.98142929    -0.19240000
opls_761-116    O    0.27945014    0.68913985    0.03980059    -0.21040000
opls_761-117    O    0.39066012    0.65677960    0.96758973    -0.19250000
opls_179-118    O    0.26030995    0.50106997    0.43127035    -0.15910000
opls_179-119    O    0.35969022    0.64535975    0.54025906    -0.16670000
opls_179-120    O    0.11201999    0.73613988    0.56933934    -0.11340000
opls_179-121    O    0.06275012    0.19065991    0.57000051    -0.15630000
opls_179-122    O    0.84593015    0.19219983    0.46368062    -0.14080000
opls_179-123    O    0.86450023    0.39743981    0.44312961    -0.16800000
opls_761-124    O    0.50127987    0.59014992    0.25849066    -0.19770000
opls_761-125    O    0.57950988    0.58304975    0.47948921    -0.19080000
opls_144-126    H    0.96594018    0.83782964    0.90484923    0.02940000
opls_185-127    H    0.90490004    0.18239975    0.85268909    0.02510000
opls_144-128    H    0.19248034    0.54146971    0.95458991    0.02940000
opls_144-129    H    0.71271993    0.16858988    0.12205932    0.02940000
opls_144-130    H    0.95002973    0.09988011    0.49476050    0.02940000
opls_146-131    H    0.46249015    0.54171976    0.96300014    0.04990000
opls_146-132    H    0.39612018    0.38859998    0.00985966    0.04990000
opls_146-133    H    0.27300979    0.47580009    0.01993005    0.04990000
opls_185-134    H    0.15913026    0.79481963    0.97428992    0.06850000
opls_185-135    H    0.86427011    0.74844980    0.72272950    0.06850000
opls_146-136    H    0.48444990    0.38741970    0.51032940    0.04990000
opls_146-137    H    0.18039981    0.00333987    0.66823996    0.04990000
opls_146-138    H    0.05932001    0.89318995    0.35075061    0.04990000
opls_144-139    H    0.25084992    0.76615993    0.72605948    0.02940000
opls_144-140    H    0.07260013    0.63048969    0.63963907    0.02940000
opls_144-141    H    0.38711012    0.46619971    0.43840971    0.02940000
opls_144-142    H    0.06547997    0.29344994    0.52249913    0.02940000
opls_144-143    H    0.76251010    0.37673000    0.33110047    0.02940000
opls_146-144    H    0.17302024    0.40915983    0.63081059    0.04990000
opls_146-145    H    0.92874024    0.52066975    0.36468991    0.04990000
opls_146-146    H    0.66973015    0.46009001    0.44651912    0.04990000
opls_146-147    H    0.60828989    0.30481973    0.56086959    0.05000000
opls_185-148    H    0.06634009    0.68408002    0.68182052    0.06850000
opls_185-149    H    0.02625982    0.74662991    0.46314975    0.06850000
opls_185-150    H    0.11844014    0.20072986    0.81039986    0.06850000
opls_185-151    H    0.82388032    0.12601974    0.65696949    0.06850000
opls_185-152    H    0.61444020    0.19126984    0.15916052    0.06850000
opls_185-153    H    0.59482009    0.50703991    0.06407893    0.06850000
opls_185-154    H    0.15342014    0.47793992    0.91036060    0.06850000
opls_185-155    H    0.31992013    0.40050986    0.49459963    0.06850000
opls_185-156    H    0.76737995    0.42231005    0.59749945    0.06850000
opls_144-157    H    0.55382974    0.47793001    0.94197940    0.02940000
opls_146-158    H    0.11827013    0.35780008    0.54638013    0.04990000
opls_146-159    H    0.94789988    0.05577998    0.95216079    0.04990000
opls_146-160    H    0.81211997    0.07405006    0.49417976    0.04990000
opls_146-161    H    0.90851993    0.93884976    0.54416979    0.05000000
opls_185-162    H    0.95171990    0.21565993    0.02858963    0.02510000
opls_185-163    H    0.60487004    0.23530006    0.89244945    0.06850000
opls_185-164    H    0.77009000    0.47750007    0.36844942    0.06850000
opls_144-165    H    0.87553008    0.67866982    0.00387051    0.02940000
opls_144-166    H    0.87101006    0.33746995    0.99310033    0.02940000
opls_146-167    H    0.00172988    0.44368972    0.99047012    0.04990000
opls_146-168    H    0.90981012    0.41248967    0.72774056    0.04990000
opls_146-169    H    0.73843994    0.57827965    0.93503951    0.04990000
opls_185-170    H    0.23388005    0.43932979    0.63757995    0.06850000
opls_185-171    H    0.16230990    0.74510998    0.22544979    0.06850000
opls_185-172    H    0.90474993    0.80383977    0.70949963    0.06850000
opls_185-173    H    0.12598983    0.44275990    0.15412050    0.06850000
opls_146-174    H    0.99363010    0.01498968    0.41611006    0.04990000
opls_185-175    H    0.09898016    0.13016993    0.84703937    0.06850000
opls_185-176    H    0.74932021    0.19946981    0.55021042    0.06850000
opls_185-177    H    0.60314015    0.55306998    0.81558949    0.06860000
opls_185-178    H    0.38711011    0.69423004    0.28302961    0.06850000
opls_185-179    H    0.39190997    0.71753964    0.55817986    0.06850000
opls_185-180    H    0.53253997    0.26470007    0.09969049    0.06850000
opls_185-181    H    0.30707982    0.74473987    0.44442943    0.06850000
opls_185-182    H    0.02981016    0.21453978    0.89229019    0.06850000
opls_185-183    H    0.81475002    0.83313977    0.81885995    0.06850000
opls_185-184    H    0.80391998    0.47928964    0.63021055    0.06850000
opls_185-185    H    0.30409001    0.45476968    0.72142967    0.06850000
opls_185-186    H    0.17245018    0.49146967    0.18216961    0.06850000
opls_185-187    H    0.79697014    0.20731982    0.76994936    0.06850000
opls_185-188    H    0.66576024    0.52994975    0.02793007    0.06850000
opls_185-189    H    0.08029992    0.81632966    0.15209033    0.06850000
opls_185-190    H    0.02489987    0.77252973    0.73989904    0.06850000
