#======================================================================
# Crystal Data Generated By AuToFF
#----------------------------------------------------------------------

data_AuToFF_phase_1

_cell_length_a                         38.0863
_cell_length_b                         38.0863
_cell_length_c                         6.0963
_cell_angle_alpha                      90.00
_cell_angle_beta                       90.00
_cell_angle_gamma                      120.00
_symmetry_space_group_name_H-M_alt     'P 1'
_symmetry_space_group_IT_number        1

loop_
_space_group_symop_operation_xyz
   'x, y, z'

loop_
   _atom_site_label
   _atom_site_type_symbol
   _atom_site_fract_x
   _atom_site_fract_y
   _atom_site_fract_z
   _atom_site_charge
opls_145-0    C    0.30995001    0.13643012    0.25000082    -0.17870000
opls_145-1    C    0.35291003    0.15589003    0.25000082    -0.13150000
opls_700-2    C    0.37862004    0.19778012    0.25000082    0.01370000
opls_716-3    C    0.35782994    0.22102008    0.25000082    0.11620000
opls_716-4    C    0.31293012    0.20069004    0.25000082    0.11420000
opls_700-5    C    0.28802000    0.15674015    0.25000082    0.01110000
opls_700-6    C    0.24310997    0.13468986    0.25000082    0.07060000
opls_700-7    C    0.42332001    0.21633989    0.25000082    0.07100000
opls_145-8    C    0.44200001    0.19220009    0.25000082    -0.12810000
opls_145-9    C    0.48394997    0.20913997    0.25000082    -0.18040000
opls_916-10    C    0.51003007    0.25162004    0.25000082    0.22750000
opls_145-11    C    0.49199000    0.27619006    0.25000082    -0.18190000
opls_145-12    C    0.44993992    0.25880996    0.25000082    -0.14040000
opls_145-13    C    0.22055984    0.15503991    0.25000082    -0.12780000
opls_145-14    C    0.17838989    0.13422994    0.25000082    -0.18640000
opls_916-15    C    0.15583989    0.09142000    0.25000082    0.22750000
opls_145-16    C    0.17774011    0.07052999    0.25000082    -0.18330000
opls_145-17    C    0.22003995    0.09176987    0.25000082    -0.13580000
opls_142-18    C    0.08605002    0.03278013    0.25000082    0.09120000
opls_700-19    C    0.04419993    0.01767994    0.25000082    -0.11930000
opls_142-20    C    0.58168010    0.30619003    0.25000082    0.09120000
opls_700-21    C    0.62288000    0.31851005    0.25000082    -0.11940000
opls_280-22    C    0.02686995    0.04467995    0.25000082    0.27190000
opls_280-23    C    0.63731009    0.28905005    0.25000082    0.27750000
opls_145-24    C    0.86357001    0.17351995    0.25000082    -0.17870000
opls_145-25    C    0.84411015    0.19702004    0.25000082    -0.13150000
opls_700-26    C    0.80222001    0.18083993    0.25000082    0.01370000
opls_716-27    C    0.77897993    0.13681000    0.25000082    0.11620000
opls_716-28    C    0.79931006    0.11223999    0.25000082    0.11420000
opls_700-29    C    0.84326003    0.13128000    0.25000082    0.01110000
opls_700-30    C    0.86531001    0.10841992    0.25000082    0.07060000
opls_700-31    C    0.78366009    0.20698011    0.25000082    0.07100000
opls_145-32    C    0.80779991    0.24980005    0.25000082    -0.12810000
opls_145-33    C    0.79085991    0.27480998    0.25000082    -0.18040000
opls_916-34    C    0.74837991    0.25841006    0.25000082    0.22750000
opls_145-35    C    0.72380988    0.21579993    0.25000082    -0.18190000
opls_145-36    C    0.74119015    0.19113016    0.25000082    -0.14040000
opls_145-37    C    0.84495989    0.06551994    0.25000082    -0.12780000
opls_145-38    C    0.86576999    0.04415999    0.25000082    -0.18640000
opls_916-39    C    0.90857998    0.06442000    0.25000082    0.22750000
opls_145-40    C    0.92947004    0.10720992    0.25000082    -0.18330000
opls_145-41    C    0.90823013    0.12827002    0.25000082    -0.13580000
opls_142-42    C    0.96721991    0.05326995    0.25000082    0.09120000
opls_700-43    C    0.98232004    0.02652007    0.25000082    -0.11930000
opls_142-44    C    0.69381005    0.27549001    0.25000082    0.09120000
opls_700-45    C    0.68149004    0.30437004    0.25000082    -0.11940000
opls_280-46    C    0.95531993    0.98218999    0.25000082    0.27190000
opls_280-47    C    0.71095001    0.34825990    0.25000082    0.27750000
opls_145-48    C    0.82647998    0.69004993    0.25000082    -0.17870000
opls_145-49    C    0.80298009    0.64708993    0.25000082    -0.13150000
opls_700-50    C    0.81915995    0.62137995    0.25000082    0.01370000
opls_716-51    C    0.86318986    0.64216992    0.25000082    0.11620000
opls_716-52    C    0.88776008    0.68706998    0.25000082    0.11420000
opls_700-53    C    0.86872012    0.71198016    0.25000082    0.01110000
opls_700-54    C    0.89158002    0.75689022    0.25000082    0.07060000
opls_700-55    C    0.79301990    0.57668000    0.25000082    0.07100000
opls_145-56    C    0.75019996    0.55800016    0.25000082    -0.12810000
opls_145-57    C    0.72519012    0.51605005    0.25000082    -0.18040000
opls_916-58    C    0.74159018    0.48997020    0.25000082    0.22750000
opls_145-59    C    0.78420012    0.50801002    0.25000082    -0.18190000
opls_145-60    C    0.80887008    0.55006018    0.25000082    -0.14040000
opls_145-61    C    0.93448000    0.77944015    0.25000082    -0.12780000
opls_145-62    C    0.95584013    0.82161007    0.25000082    -0.18640000
opls_916-63    C    0.93558013    0.84415999    0.25000082    0.22750000
opls_145-64    C    0.89279012    0.82226009    0.25000082    -0.18330000
opls_145-65    C    0.87173018    0.77996010    0.25000082    -0.13580000
opls_142-66    C    0.94673022    0.91395022    0.25000082    0.09120000
opls_700-67    C    0.97348003    0.95579999    0.25000082    -0.11930000
opls_142-68    C    0.72450986    0.41831996    0.25000082    0.09120000
opls_700-69    C    0.69562995    0.37711991    0.25000082    -0.11940000
opls_280-70    C    0.01781012    0.97313006    0.25000082    0.27190000
opls_280-71    C    0.65174016    0.36269006    0.25000082    0.27750000
opls_145-72    C    0.69005014    0.86357019    0.75000082    -0.17870000
opls_145-73    C    0.64708997    0.84410997    0.75000082    -0.13150000
opls_700-74    C    0.62138011    0.80222019    0.75000082    0.01370000
opls_716-75    C    0.64217021    0.77898022    0.75000082    0.11620000
opls_716-76    C    0.68706988    0.79930996    0.75000082    0.11420000
opls_700-77    C    0.71198015    0.84326016    0.75000082    0.01110000
opls_700-78    C    0.75689003    0.86531014    0.75000082    0.07060000
opls_700-79    C    0.57667999    0.78366011    0.75000082    0.07100000
opls_145-80    C    0.55800014    0.80780022    0.75000082    -0.12810000
opls_145-81    C    0.51605003    0.79086003    0.75000082    -0.18040000
opls_916-82    C    0.48996993    0.74837996    0.75000082    0.22750000
opls_145-83    C    0.50801000    0.72380994    0.75000082    -0.18190000
opls_145-84    C    0.55006008    0.74119004    0.75000082    -0.14040000
opls_145-85    C    0.77944016    0.84496009    0.75000082    -0.12780000
opls_145-86    C    0.82161011    0.86577006    0.75000082    -0.18640000
opls_916-87    C    0.84416011    0.90858000    0.75000082    0.22750000
opls_145-88    C    0.82225989    0.92947001    0.75000082    -0.18330000
opls_145-89    C    0.77996005    0.90823013    0.75000082    -0.13580000
opls_142-90    C    0.91395013    0.96722017    0.75000082    0.09120000
opls_700-91    C    0.95580007    0.98232006    0.75000082    -0.11930000
opls_142-92    C    0.41831990    0.69380997    0.75000082    0.09120000
opls_700-93    C    0.37712000    0.68148995    0.75000082    -0.11940000
opls_280-94    C    0.97313005    0.95532005    0.75000082    0.27190000
opls_280-95    C    0.36268991    0.71094995    0.75000082    0.27750000
opls_145-96    C    0.13642999    0.82648005    0.75000082    -0.17870000
opls_145-97    C    0.15588985    0.80297996    0.75000082    -0.13150000
opls_700-98    C    0.19777999    0.81916007    0.75000082    0.01370000
opls_716-99    C    0.22102007    0.86319000    0.75000082    0.11620000
opls_716-100    C    0.20068994    0.88776001    0.75000082    0.11420000
opls_700-101    C    0.15673997    0.86872000    0.75000082    0.01110000
opls_700-102    C    0.13468999    0.89158008    0.75000082    0.07060000
opls_700-103    C    0.21634006    0.79302019    0.75000082    0.07100000
opls_145-104    C    0.19220009    0.75019995    0.75000082    -0.12810000
opls_145-105    C    0.20914009    0.72519002    0.75000082    -0.18040000
opls_916-106    C    0.25162009    0.74158994    0.75000082    0.22750000
opls_145-107    C    0.27619012    0.78420007    0.75000082    -0.18190000
opls_145-108    C    0.25881000    0.80887014    0.75000082    -0.14040000
opls_145-109    C    0.15504011    0.93448006    0.75000082    -0.12780000
opls_145-110    C    0.13423001    0.95584001    0.75000082    -0.18640000
opls_916-111    C    0.09142002    0.93558000    0.75000082    0.22750000
opls_145-112    C    0.07052996    0.89279008    0.75000082    -0.18330000
opls_145-113    C    0.09176987    0.87172998    0.75000082    -0.13580000
opls_142-114    C    0.03278009    0.94673005    0.75000082    0.09120000
opls_700-115    C    0.01768011    0.97348023    0.75000082    -0.11930000
opls_142-116    C    0.30618995    0.72450999    0.75000082    0.09120000
opls_700-117    C    0.31850996    0.69562996    0.75000082    -0.11940000
opls_280-118    C    0.04468007    0.01781001    0.75000082    0.27190000
opls_280-119    C    0.28904999    0.65174010    0.75000082    0.27760000
opls_145-120    C    0.17352002    0.30995007    0.75000082    -0.17870000
opls_145-121    C    0.19701991    0.35291007    0.75000082    -0.13150000
opls_700-122    C    0.18084005    0.37862005    0.75000082    0.01370000
opls_716-123    C    0.13681014    0.35783008    0.75000082    0.11620000
opls_716-124    C    0.11223992    0.31293002    0.75000082    0.11420000
opls_700-125    C    0.13128003    0.28802014    0.75000082    0.01110000
opls_700-126    C    0.10842013    0.24311008    0.75000082    0.07060000
opls_700-127    C    0.20698010    0.42332000    0.75000082    0.07100000
opls_145-128    C    0.24980019    0.44200014    0.75000082    -0.12810000
opls_145-129    C    0.27480988    0.48394995    0.75000082    -0.18040000
opls_916-130    C    0.25840997    0.51003011    0.75000082    0.22750000
opls_145-131    C    0.21579988    0.49198998    0.75000082    -0.18190000
opls_145-132    C    0.19113007    0.44994012    0.75000082    -0.14040000
opls_145-133    C    0.06552015    0.22056016    0.75000082    -0.12770000
opls_145-134    C    0.04415987    0.17838993    0.75000082    -0.18640000
opls_916-135    C    0.06441987    0.15584001    0.75000082    0.22750000
opls_145-136    C    0.10720988    0.17773991    0.75000082    -0.18320000
opls_145-137    C    0.12826982    0.22003990    0.75000082    -0.13580000
opls_142-138    C    0.05326993    0.08605008    0.75000082    0.09120000
opls_700-139    C    0.02651997    0.04420001    0.75000082    -0.11930000
opls_142-140    C    0.27549014    0.58168004    0.75000082    0.09120000
opls_700-141    C    0.30437005    0.62288009    0.75000082    -0.11940000
opls_280-142    C    0.98218988    0.02686994    0.75000082    0.27190000
opls_280-143    C    0.34825984    0.63730994    0.75000082    0.27750000
opls_238-144    N    0.11361004    0.07273987    0.25000082    -0.21500000
opls_238-145    N    0.55188994    0.26688000    0.25000082    -0.21680000
opls_750-146    N    0.37709986    0.26117992    0.25000082    -0.35600000
opls_750-147    N    0.29771998    0.22529007    0.25000082    -0.35600000
opls_238-148    N    0.92725997    0.04086988    0.25000082    -0.21500000
opls_238-149    N    0.73312008    0.28501017    0.25000082    -0.21680000
opls_750-150    N    0.73882004    0.11591998    0.25000082    -0.35600000
opls_750-151    N    0.77470995    0.07243002    0.25000082    -0.35600000
opls_238-152    N    0.95913010    0.88638994    0.25000082    -0.21500000
opls_238-153    N    0.71499012    0.44811013    0.25000082    -0.21680000
opls_750-154    N    0.88408010    0.62290010    0.25000082    -0.35590000
opls_750-155    N    0.92757022    0.70228022    0.25000082    -0.35600000
opls_238-156    N    0.88638996    0.92726013    0.75000082    -0.21490000
opls_238-157    N    0.44811006    0.73312000    0.75000082    -0.21670000
opls_750-158    N    0.62290014    0.73882008    0.75000082    -0.35600000
opls_750-159    N    0.70228002    0.77470993    0.75000082    -0.35600000
opls_238-160    N    0.07274003    0.95913012    0.75000082    -0.21500000
opls_238-161    N    0.26688007    0.71499013    0.75000082    -0.21680000
opls_750-162    N    0.26117996    0.88408002    0.75000082    -0.35600000
opls_750-163    N    0.22529005    0.92756998    0.75000082    -0.35600000
opls_238-164    N    0.04086990    0.11361006    0.75000082    -0.21500000
opls_238-165    N    0.28501003    0.55189018    0.75000082    -0.21670000
opls_750-166    N    0.11591990    0.37709990    0.75000082    -0.35600000
opls_750-167    N    0.07242994    0.29772009    0.75000082    -0.35600000
opls_202-168    S    0.33951991    0.27733001    0.25000082    0.45660000
opls_202-169    S    0.72266998    0.06219011    0.25000082    0.45660000
opls_202-170    S    0.93781000    0.66048018    0.25000082    0.45670000
opls_202-171    S    0.66048009    0.72266999    0.75000082    0.45660000
opls_202-172    S    0.27733017    0.93781019    0.75000082    0.45660000
opls_202-173    S    0.06219015    0.33952013    0.75000082    0.45660000
opls_146-174    H    0.29373006    0.10314004    0.25000082    0.11050000
opls_146-175    H    0.36584997    0.13580011    0.25000082    0.07170000
opls_146-176    H    0.42347014    0.15898004    0.25000082    0.11090000
opls_146-177    H    0.49712015    0.18922013    0.25000082    0.06450000
opls_146-178    H    0.51099004    0.30935007    0.25000082    0.08270000
opls_146-179    H    0.43717012    0.27908997    0.25000082    0.10580000
opls_146-180    H    0.23659997    0.18835000    0.25000082    0.06750000
opls_146-181    H    0.16216982    0.15133990    0.25000082    0.10810000
opls_146-182    H    0.16157004    0.03723991    0.25000082    0.11090000
opls_146-183    H    0.23538014    0.07385011    0.25000082    0.11050000
opls_144-184    H    0.09726012    0.01107001    0.25000082    0.06000000
opls_144-185    H    0.57283011    0.32971013    0.25000082    0.06370000
opls_910-186    H    0.10071991    0.09149004    0.25000082    0.27810000
opls_910-187    H    0.56248004    0.24617008    0.25000082    0.27820000
opls_146-188    H    0.89686008    0.19058990    0.25000082    0.11050000
opls_146-189    H    0.86419990    0.23004999    0.25000082    0.07170000
opls_146-190    H    0.84102009    0.26449004    0.25000082    0.11090000
opls_146-191    H    0.81077987    0.30789996    0.25000082    0.06450000
opls_146-192    H    0.69064989    0.20163990    0.25000082    0.08270000
opls_146-193    H    0.72090986    0.15807990    0.25000082    0.10810000
opls_146-194    H    0.81164986    0.04824989    0.25000082    0.06750000
opls_146-195    H    0.84865989    0.01082989    0.25000082    0.10810000
opls_146-196    H    0.96275991    0.12432990    0.25000082    0.11090000
opls_146-197    H    0.92615013    0.16153009    0.25000082    0.11050000
opls_144-198    H    0.98893019    0.08619015    0.25000082    0.06000000
opls_144-199    H    0.67029016    0.24312009    0.25000082    0.06370000
opls_910-200    H    0.90851011    0.00923001    0.25000082    0.27810000
opls_910-201    H    0.75383017    0.31631018    0.25000082    0.27810000
opls_146-202    H    0.80941012    0.70627007    0.25000082    0.11050000
opls_146-203    H    0.76995002    0.63415020    0.25000082    0.07170000
opls_146-204    H    0.73551003    0.57652992    0.25000082    0.11050000
opls_146-205    H    0.69209998    0.50287991    0.25000082    0.06450000
opls_146-206    H    0.79836007    0.48901003    0.25000082    0.08270000
opls_146-207    H    0.84192002    0.56283013    0.25000082    0.10810000
opls_146-208    H    0.95175017    0.76340010    0.25000082    0.06750000
opls_146-209    H    0.98917002    0.83783020    0.25000082    0.10810000
opls_146-210    H    0.87567004    0.83843019    0.25000082    0.11090000
opls_146-211    H    0.83847014    0.76462010    0.25000082    0.11050000
opls_144-212    H    0.91381011    0.90274014    0.25000082    0.06000000
opls_144-213    H    0.75688014    0.42717009    0.25000082    0.06370000
opls_910-214    H    0.99076999    0.89927995    0.25000082    0.27810000
opls_910-215    H    0.68368993    0.43752005    0.25000082    0.27820000
opls_146-216    H    0.70626994    0.89685996    0.75000082    0.11050000
opls_146-217    H    0.63415018    0.86420020    0.75000082    0.07170000
opls_146-218    H    0.57652986    0.84101996    0.75000082    0.11050000
opls_146-219    H    0.50288000    0.81078017    0.75000082    0.06450000
opls_146-220    H    0.48900996    0.69064993    0.75000082    0.08270000
opls_146-221    H    0.56282988    0.72091003    0.75000082    0.10580000
opls_146-222    H    0.76340003    0.81165000    0.75000082    0.06750000
opls_146-223    H    0.83783018    0.84866010    0.75000082    0.10810000
opls_146-224    H    0.83842996    0.96276009    0.75000082    0.11090000
opls_146-225    H    0.76462001    0.92615019    0.75000082    0.11050000
opls_144-226    H    0.90273988    0.98892999    0.75000082    0.06000000
opls_144-227    H    0.42717004    0.67029017    0.75000082    0.06370000
opls_910-228    H    0.89928009    0.90850996    0.75000082    0.27810000
opls_910-229    H    0.43752011    0.75383023    0.75000082    0.27810000
opls_146-230    H    0.10313992    0.80941010    0.75000082    0.11050000
opls_146-231    H    0.13580010    0.76995001    0.75000082    0.07170000
opls_146-232    H    0.15897991    0.73550996    0.75000082    0.11090000
opls_146-233    H    0.18922013    0.69210004    0.75000082    0.06450000
opls_146-234    H    0.30935011    0.79836010    0.75000082    0.08270000
opls_146-235    H    0.27909014    0.84192010    0.75000082    0.10810000
opls_146-236    H    0.18835014    0.95175011    0.75000082    0.06750000
opls_146-237    H    0.15134011    0.98917011    0.75000082    0.10810000
opls_146-238    H    0.03724009    0.87567010    0.75000082    0.11090000
opls_146-239    H    0.07385002    0.83847021    0.75000082    0.11050000
opls_144-240    H    0.01106996    0.91381015    0.75000082    0.06000000
opls_144-241    H    0.32970999    0.75688022    0.75000082    0.06370000
opls_910-242    H    0.09148989    0.99076999    0.75000082    0.27810000
opls_910-243    H    0.24616998    0.68369013    0.75000082    0.27810000
opls_146-244    H    0.19058988    0.29372993    0.75000082    0.11050000
opls_146-245    H    0.23005013    0.36585010    0.75000082    0.07170000
opls_146-246    H    0.26448997    0.42347008    0.75000082    0.11090000
opls_146-247    H    0.30790002    0.49712009    0.75000082    0.06450000
opls_146-248    H    0.20163993    0.51098997    0.75000082    0.08270000
opls_146-249    H    0.15808013    0.43717018    0.75000082    0.10810000
opls_146-250    H    0.04824983    0.23659990    0.75000082    0.06750000
opls_146-251    H    0.01083013    0.16217010    0.75000082    0.10810000
opls_146-252    H    0.12433011    0.16157011    0.75000082    0.11090000
opls_146-253    H    0.16152986    0.23537990    0.75000082    0.11050000
opls_144-254    H    0.08618989    0.09725986    0.75000082    0.06000000
opls_144-255    H    0.24311986    0.57282991    0.75000082    0.06370000
opls_910-256    H    0.00923001    0.10072005    0.75000082    0.27820000
opls_910-257    H    0.31631007    0.56247995    0.75000082    0.27810000
opls_281-258    O    0.04920016    0.08249014    0.25000082    -0.33770000
opls_281-259    O    0.61292004    0.25178012    0.25000082    -0.37030000
opls_281-260    O    0.91751018    0.96671022    0.25000082    -0.33770000
opls_281-261    O    0.74822000    0.36113990    0.25000082    -0.37030000
opls_281-262    O    0.03329023    0.95080024    0.25000082    -0.33770000
opls_281-263    O    0.63885996    0.38707998    0.25000082    -0.37030000
opls_281-264    O    0.95079999    0.91751016    0.75000082    -0.33770000
opls_281-265    O    0.38708011    0.74822018    0.75000082    -0.37020000
opls_281-266    O    0.08248998    0.03329008    0.75000082    -0.33770000
opls_281-267    O    0.25178000    0.63886010    0.75000082    -0.37030000
opls_281-268    O    0.96670992    0.04920006    0.75000082    -0.33770000
opls_281-269    O    0.36114004    0.61292002    0.75000082    -0.37030000
