#======================================================================
# Crystal Data Generated By AuToFF
#----------------------------------------------------------------------

data_AuToFF_phase_1

_cell_length_a                         26.2487
_cell_length_b                         26.1851
_cell_length_c                         10.9393
_cell_angle_alpha                      90.00
_cell_angle_beta                       90.00
_cell_angle_gamma                      120.00
_symmetry_space_group_name_H-M_alt     'P 1'
_symmetry_space_group_IT_number        1

loop_
_space_group_symop_operation_xyz
   'x, y, z'

loop_
   _atom_site_label
   _atom_site_type_symbol
   _atom_site_fract_x
   _atom_site_fract_y
   _atom_site_fract_z
   _atom_site_charge
opls_700-0    C    0.21876011    0.09236996    0.14817036    0.10870000
opls_145-1    C    0.25249999    0.06727004    0.10996956    -0.12040000
opls_145-2    C    0.31382976    0.09978983    0.11230975    -0.11750000
opls_700-3    C    0.34321013    0.15838014    0.15369996    0.06460000
opls_145-4    C    0.30962008    0.18351005    0.19329025    -0.13160000
opls_145-5    C    0.24813980    0.15102994    0.19052042    -0.13020000
opls_145-6    C    0.43805011    0.25333995    0.12329034    -0.12030000
opls_523-7    C    0.49940997    0.28611022    0.12319984    -0.12540000
opls_700-8    C    0.53282996    0.25945012    0.15297962    0.00110000
opls_523-9    C    0.50347992    0.19928994    0.18330972    -0.12680000
opls_145-10    C    0.44202981    0.16659993    0.18441034    -0.13060000
opls_700-11    C    0.40856009    0.19321990    0.15423016    0.06490000
opls_531-12    C    0.59787004    0.29456991    0.15296043    0.33480000
opls_142-13    C    0.15369992    0.05546996    0.14024023    -0.18740000
opls_142-14    C    0.11521997    0.07167010    0.17859004    -0.19070000
opls_521-15    C    0.05068000    0.03235002    0.17158045    0.19710000
opls_700-16    C    0.90374017    0.13498017    0.16140978    0.12640000
opls_145-17    C    0.92735000    0.19330016    0.12093004    -0.12040000
opls_145-18    C    0.89277007    0.22011019    0.11838966    -0.12960000
opls_700-19    C    0.83387028    0.18928022    0.15769016    0.06460000
opls_145-20    C    0.81053990    0.13117984    0.20005028    -0.11910000
opls_145-21    C    0.84498982    0.10433982    0.20216010    -0.12760000
opls_145-22    C    0.73698005    0.18506008    0.12529961    -0.12960000
opls_523-23    C    0.70220007    0.21165006    0.12528041    -0.12680000
opls_700-24    C    0.72684011    0.27161004    0.15464975    0.00050000
opls_523-25    C    0.78691998    0.30431019    0.18449992    -0.12530000
opls_145-26    C    0.82149982    0.27760996    0.18569013    -0.12120000
opls_700-27    C    0.79702990    0.21769011    0.15586006    0.06450000
opls_531-28    C    0.69057011    0.30034008    0.15360032    0.33090000
opls_142-29    C    0.94198000    0.10829979    0.16399038    -0.12480000
opls_142-30    C    0.92066012    0.05003007    0.16048010    -0.18510000
opls_522-31    C    0.93108000    0.96172018    0.16332032    -0.20010000
opls_521-32    C    0.95858984    0.02332985    0.16387977    0.19450000
opls_700-33    C    0.85737015    0.76641005    0.14172022    0.10930000
opls_145-34    C    0.79850992    0.73209019    0.10457982    -0.11910000
opls_145-35    C    0.77027002    0.67064986    0.10729023    -0.11910000
opls_700-36    C    0.80028993    0.64191011    0.14732021    0.06140000
opls_145-37    C    0.85906993    0.67606990    0.18512976    -0.11930000
opls_145-38    C    0.88738993    0.73754022    0.18238004    -0.12040000
opls_145-39    C    0.80157024    0.54765013    0.11673965    -0.12120000
opls_523-40    C    0.77377008    0.48621993    0.11847010    -0.11910000
opls_700-41    C    0.71417988    0.45234987    0.15085974    -0.00500000
opls_523-42    C    0.68303015    0.48116017    0.18221001    -0.12040000
opls_145-43    C    0.71103003    0.54264020    0.18186996    -0.12390000
opls_700-44    C    0.77058995    0.57659007    0.14880020    0.06580000
opls_531-45    C    0.68476998    0.38736012    0.15194025    0.35730000
opls_142-46    C    0.88499989    0.83152989    0.13455980    -0.13440000
opls_142-47    C    0.93923007    0.86985028    0.17490973    -0.12620000
opls_522-48    C    0.02571986    0.97064995    0.17443986    -0.17470000
opls_700-49    C    0.96507996    0.93466011    0.16861042    0.09600000
opls_700-50    C    0.23325996    0.09909000    0.49107987    0.09530000
opls_145-51    C    0.26739014    0.07459995    0.45267979    -0.11890000
opls_145-52    C    0.32859001    0.10879016    0.44910003    -0.11930000
opls_700-53    C    0.35714007    0.16823022    0.48529979    0.06450000
opls_145-54    C    0.32290989    0.19280009    0.52391012    -0.12790000
opls_145-55    C    0.26160993    0.15862003    0.52694962    -0.12680000
opls_145-56    C    0.45091011    0.26390001    0.45134972    -0.12540000
opls_523-57    C    0.51222979    0.29765983    0.45197956    -0.12390000
opls_700-58    C    0.54634022    0.27215024    0.48469006    -0.00260000
opls_523-59    C    0.51785990    0.21230006    0.51735029    -0.11930000
opls_145-60    C    0.45655985    0.17874001    0.51806971    -0.12350000
opls_700-61    C    0.42234009    0.20407012    0.48471017    0.06490000
opls_531-62    C    0.61121980    0.30778993    0.48510965    0.34970000
opls_142-63    C    0.16876989    0.06031981    0.49828965    -0.12970000
opls_142-64    C    0.13054002    0.08000014    0.48899015    -0.12530000
opls_522-65    C    0.03029980    0.06645997    0.50699039    -0.18370000
opls_700-66    C    0.06564993    0.04121011    0.49417970    0.09860000
opls_700-67    C    0.90774995    0.13780022    0.48677978    0.10870000
opls_145-68    C    0.93227999    0.19662997    0.44838975    -0.12350000
opls_145-69    C    0.89932001    0.22507999    0.45049043    -0.11930000
opls_700-70    C    0.84082995    0.19549005    0.49175998    0.06490000
opls_145-71    C    0.81616979    0.13665985    0.53087035    -0.13150000
opls_145-72    C    0.84906012    0.10799993    0.52811972    -0.12960000
opls_145-73    C    0.74557007    0.19476993    0.46211001    -0.12540000
opls_523-74    C    0.71259990    0.22324994    0.46140978    -0.12760000
opls_700-75    C    0.73898000    0.28354021    0.48991983    0.00110000
opls_523-76    C    0.79897997    0.31458008    0.52032031    -0.12760000
opls_145-77    C    0.83185010    0.28594000    0.52219978    -0.13150000
opls_700-78    C    0.80560974    0.22571985    0.49255985    0.06840000
opls_531-79    C    0.70384004    0.31351998    0.48792976    0.33460000
opls_142-80    C    0.94501015    0.10994022    0.47905990    -0.11630000
opls_142-81    C    0.92993977    0.05598987    0.52114029    -0.19550000
opls_521-82    C    0.96865999    0.03019011    0.50967978    0.19720000
opls_700-83    C    0.86416003    0.77995022    0.48389019    0.10930000
opls_145-84    C    0.80596026    0.74540018    0.44336018    -0.12390000
opls_145-85    C    0.77908975    0.68389987    0.44060040    -0.13160000
opls_700-86    C    0.80969004    0.65551026    0.47989999    0.06490000
opls_145-87    C    0.86775998    0.69012998    0.52168969    -0.11910000
opls_145-88    C    0.89465996    0.75150990    0.52392018    -0.12760000
opls_145-89    C    0.81326999    0.56208989    0.45007999    -0.12960000
opls_523-90    C    0.78653020    0.50063016    0.45211028    -0.12560000
opls_700-91    C    0.72680012    0.46577010    0.48249979    0.00050000
opls_523-92    C    0.69444029    0.49370021    0.51111040    -0.12560000
opls_145-93    C    0.72128018    0.55511012    0.51018987    -0.12350000
opls_700-94    C    0.78099998    0.59010996    0.47948041    0.06660000
opls_531-95    C    0.69803982    0.40064982    0.48403006    0.33480000
opls_142-96    C    0.89085999    0.84502993    0.48795992    -0.13460000
opls_142-97    C    0.94906989    0.88170989    0.48539029    -0.18730000
opls_522-98    C    0.03772011    0.98005994    0.48409039    -0.20650000
opls_521-99    C    0.97634986    0.94646990    0.49201960    0.19470000
opls_700-100    C    0.22477008    0.09325015    0.81981023    0.12640000
opls_145-101    C    0.25929024    0.06914022    0.78162040    -0.12540000
opls_145-102    C    0.32064996    0.10365014    0.77960016    -0.13150000
opls_700-103    C    0.34887995    0.16290984    0.81761996    0.06490000
opls_145-104    C    0.31426013    0.18670007    0.85772033    -0.11910000
opls_145-105    C    0.25303027    0.15238021    0.85896995    -0.12380000
opls_145-106    C    0.44188988    0.25980996    0.78593969    -0.13060000
opls_523-107    C    0.50318992    0.29456991    0.78729992    -0.12560000
opls_700-108    C    0.53812010    0.26983996    0.81866024    0.00110000
opls_523-109    C    0.51040989    0.20967008    0.84908998    -0.12680000
opls_145-110    C    0.44915006    0.17509005    0.84890989    -0.12390000
opls_700-111    C    0.41410003    0.19965992    0.81705959    0.06590000
opls_531-112    C    0.60306981    0.30620992    0.81906978    0.33480000
opls_142-113    C    0.15988009    0.05514011    0.82269981    -0.13430000
opls_142-114    C    0.12332982    0.07679998    0.81669028    -0.18800000
opls_522-115    C    0.02534993    0.06753022    0.83022040    -0.20150000
opls_521-116    C    0.05881997    0.03942989    0.82578044    0.19480000
opls_700-117    C    0.90395981    0.14186999    0.81934036    0.10870000
opls_145-118    C    0.92811987    0.20085011    0.78236999    -0.12120000
opls_145-119    C    0.89456013    0.22863999    0.78474034    -0.11900000
opls_700-120    C    0.83582021    0.19807020    0.82435988    0.06160000
opls_145-121    C    0.81158996    0.13919988    0.86225993    -0.12040000
opls_145-122    C    0.84508987    0.11130989    0.85975977    -0.12560000
opls_145-123    C    0.74002984    0.19571980    0.79213021    -0.12350000
opls_523-124    C    0.70617004    0.22320981    0.79199035    -0.11910000
opls_700-125    C    0.73147993    0.28304014    0.82325012    -0.00170000
opls_523-126    C    0.79121008    0.31468019    0.85578968    -0.12040000
opls_145-127    C    0.82490993    0.28700011    0.85726966    -0.12380000
opls_700-128    C    0.79978979    0.22726988    0.82492024    0.06410000
opls_531-129    C    0.69580994    0.31230024    0.82148035    0.34990000
opls_142-130    C    0.94168982    0.11458987    0.81148977    -0.13120000
opls_142-131    C    0.92592992    0.06004994    0.85038988    -0.14860000
opls_522-132    C    0.93937986    0.97298006    0.84671963    -0.23930000
opls_700-133    C    0.96441995    0.03382993    0.84060040    0.09510000
opls_700-134    C    0.86692014    0.77933991    0.81213972    0.10870000
opls_145-135    C    0.80819984    0.74570004    0.77343980    -0.12540000
opls_145-136    C    0.77929000    0.68417989    0.77459984    -0.11910000
opls_700-137    C    0.80830008    0.65452997    0.81525966    0.06450000
opls_145-138    C    0.86694000    0.68803005    0.85497975    -0.13060000
opls_145-139    C    0.89603985    0.74966001    0.85324015    -0.12870000
opls_145-140    C    0.80820030    0.55942022    0.78534001    -0.12350000
opls_523-141    C    0.77965009    0.49791992    0.78630991    -0.12540000
opls_700-142    C    0.71966992    0.46441983    0.81626978    0.00060000
opls_523-143    C    0.68885983    0.49384000    0.84541973    -0.12760000
opls_145-144    C    0.71759014    0.55545011    0.84559981    -0.13150000
opls_700-145    C    0.77765013    0.58901017    0.81556955    0.06840000
opls_531-146    C    0.68987008    0.39925016    0.81797007    0.33490000
opls_142-147    C    0.89514006    0.84464011    0.80663022    -0.11630000
opls_142-148    C    0.94987011    0.88282997    0.84516011    -0.19330000
opls_521-149    C    0.97549020    0.94755029    0.83917984    0.19730000
opls_146-150    H    0.23128986    0.02236984    0.07626996    0.11190000
opls_146-151    H    0.33822991    0.07936999    0.07889993    0.11490000
opls_146-152    H    0.33088986    0.22819990    0.22802007    0.11700000
opls_146-153    H    0.22451007    0.17250019    0.22159005    0.11320000
opls_146-154    H    0.41370977    0.27493985    0.09698975    0.11490000
opls_526-155    H    0.52066006    0.33225000    0.09810043    0.11500000
opls_526-156    H    0.52797006    0.17761993    0.20791001    0.11480000
opls_146-157    H    0.42073982    0.12062993    0.21072006    0.11620000
opls_144-158    H    0.13697998    0.01260001    0.09833993    0.11950000
opls_144-159    H    0.13030004    0.11525002    0.21469015    0.11370000
opls_146-160    H    0.97249025    0.21797013    0.08964010    0.11640000
opls_146-161    H    0.91192001    0.26465011    0.08360041    0.11620000
opls_146-162    H    0.76597992    0.10684986    0.23462013    0.11670000
opls_146-163    H    0.82581016    0.06031011    0.23945956    0.11970000
opls_146-164    H    0.71698003    0.13909007    0.09963983    0.11620000
opls_526-165    H    0.65622001    0.18544990    0.10055031    0.11480000
opls_526-166    H    0.80714993    0.35047996    0.20883969    0.11490000
opls_146-167    H    0.86723984    0.30372987    0.21218999    0.11490000
opls_144-168    H    0.98909014    0.13765999    0.16614957    0.11950000
opls_144-169    H    0.87374008    0.02053009    0.15231962    0.11950000
opls_146-170    H    0.77430024    0.75292014    0.07214995    0.11320000
opls_146-171    H    0.72528003    0.64568002    0.07542987    0.11620000
opls_146-172    H    0.88311002    0.65529022    0.21859991    0.11660000
opls_146-173    H    0.93262025    0.76140012    0.21196969    0.11070000
opls_146-174    H    0.84711014    0.57244004    0.08824971    0.11620000
opls_526-175    H    0.79875988    0.46525989    0.09246021    0.11480000
opls_526-176    H    0.63721992    0.45623002    0.20892013    0.11480000
opls_146-177    H    0.68625004    0.56359009    0.20936989    0.11620000
opls_144-178    H    0.85908027    0.84827023    0.09204977    0.11730000
opls_144-179    H    0.96687016    0.85427015    0.21311967    0.11830000
opls_525-180    H    0.88363003    0.93588029    0.16214017    0.11870000
opls_146-181    H    0.24656002    0.02883014    0.42468988    0.11320000
opls_146-182    H    0.35349983    0.08873985    0.41677987    0.11620000
opls_146-183    H    0.34356021    0.23800016    0.55538014    0.11660000
opls_146-184    H    0.23689007    0.17844014    0.56148017    0.12130000
opls_146-185    H    0.42589007    0.28447023    0.42291006    0.11700000
opls_526-186    H    0.53293013    0.34353987    0.42508022    0.11480000
opls_526-187    H    0.54292011    0.19154993    0.54440961    0.11640000
opls_146-188    H    0.43598024    0.13315012    0.54690977    0.11660000
opls_144-189    H    0.15321013    0.01388017    0.50994031    0.11320000
opls_144-190    H    0.14711989    0.12668012    0.47602040    0.11660000
opls_146-191    H    0.97711002    0.22063980    0.41501010    0.11190000
opls_146-192    H    0.91936986    0.26994006    0.41717020    0.11620000
opls_146-193    H    0.77153029    0.11285022    0.56516962    0.11670000
opls_146-194    H    0.82784986    0.06270990    0.55827978    0.12220000
opls_146-195    H    0.72421006    0.14872981    0.43631037    0.11620000
opls_526-196    H    0.66657012    0.19815002    0.43639995    0.11480000
opls_526-197    H    0.82043002    0.36089008    0.54413994    0.11520000
opls_146-198    H    0.87771004    0.31084987    0.54844003    0.11670000
opls_144-199    H    0.98701988    0.13548994    0.43380015    0.11630000
opls_144-200    H    0.88732982    0.02815986    0.56173978    0.12260000
opls_146-201    H    0.78134995    0.76607006    0.41267997    0.11480000
opls_146-202    H    0.73459011    0.65863987    0.40615030    0.11620000
opls_146-203    H    0.89196011    0.66971014    0.55624034    0.11670000
opls_146-204    H    0.93857987    0.77613005    0.56127997    0.12020000
opls_146-205    H    0.85908013    0.58765990    0.42390007    0.11920000
opls_526-206    H    0.81247997    0.48041007    0.42832997    0.11520000
opls_526-207    H    0.64845022    0.46812007    0.53616045    0.11480000
opls_146-208    H    0.69543980    0.57517983    0.53588986    0.11670000
opls_144-209    H    0.86166011    0.86307997    0.49053961    0.11400000
opls_144-210    H    0.97823012    0.86393017    0.47570960    0.11950000
opls_525-211    H    0.05075987    0.11378994    0.51728995    0.11660000
opls_146-212    H    0.23865976    0.02366984    0.75162030    0.11320000
opls_146-213    H    0.34593007    0.08412988    0.74651029    0.11670000
opls_146-214    H    0.33453989    0.23153985    0.89128006    0.11670000
opls_146-215    H    0.22830988    0.17197014    0.89446034    0.12020000
opls_146-216    H    0.41627993    0.27991009    0.75873045    0.11620000
opls_526-217    H    0.52321006    0.34061003    0.76205973    0.11490000
opls_526-218    H    0.53604009    0.18937988    0.87494995    0.11480000
opls_146-219    H    0.42924996    0.12928982    0.87592990    0.11700000
opls_144-220    H    0.14189005    0.00790979    0.82872030    0.11650000
opls_144-221    H    0.14107007    0.12367002    0.80418034    0.11620000
opls_146-222    H    0.97309980    0.22546982    0.75002971    0.11190000
opls_146-223    H    0.91428981    0.27367998    0.75269990    0.11920000
opls_146-224    H    0.76679996    0.11476009    0.89551982    0.11680000
opls_146-225    H    0.82399990    0.06597004    0.88931010    0.11370000
opls_146-226    H    0.71962013    0.15000997    0.76427011    0.11630000
opls_526-227    H    0.66039996    0.19782017    0.76521990    0.11480000
opls_526-228    H    0.81178014    0.36068018    0.88172004    0.11480000
opls_146-229    H    0.87047989    0.31223982    0.88536012    0.11620000
opls_144-230    H    0.98421003    0.14092012    0.76884993    0.11910000
opls_144-231    H    0.88288987    0.03220008    0.88905963    0.11370000
opls_146-232    H    0.78463010    0.76713016    0.74060955    0.11320000
opls_146-233    H    0.73453022    0.65987019    0.74111963    0.11670000
opls_146-234    H    0.89021992    0.66661007    0.88928999    0.11660000
opls_146-235    H    0.94099991    0.77313008    0.88476959    0.11610000
opls_146-236    H    0.85408006    0.58378019    0.75901017    0.11710000
opls_526-237    H    0.80450982    0.47658990    0.76197014    0.11210000
opls_526-238    H    0.64276994    0.46930012    0.87009955    0.11700000
opls_146-239    H    0.69295023    0.57678013    0.87139031    0.11920000
opls_144-240    H    0.86910991    0.86186993    0.76656002    0.11940000
opls_144-241    H    0.97823009    0.86737023    0.87965958    0.09870000
opls_525-242    H    0.89234991    0.94590016    0.85968024    0.11660000
opls_525-243    H    0.04744993    0.11514021    0.82905030    0.12020000
opls_525-244    H    0.06238998    0.95781004    0.46840017    0.12070000
opls_525-245    H    0.05286991    0.95057009    0.18412970    0.11620000
opls_520-246    N    0.62522009    0.35436981    0.15218981    -0.44870000
opls_520-247    N    0.01726999    0.05777979    0.16813964    -0.26840000
opls_520-248    N    0.63081018    0.26771005    0.15371002    -0.47210000
opls_520-249    N    0.71710001    0.36005002    0.15262037    -0.44470000
opls_520-250    N    0.63844012    0.36751002    0.48343038    -0.45500000
opls_520-251    N    0.64418007    0.28112013    0.48739042    -0.44910000
opls_520-252    N    0.94269014    0.97125011    0.50501038    -0.26770000
opls_520-253    N    0.73058998    0.37339000    0.48624958    -0.47220000
opls_520-254    N    0.63016018    0.36610022    0.81757974    -0.47160000
opls_520-255    N    0.63623003    0.27973018    0.82091999    -0.45490000
opls_520-256    N    0.72231003    0.37198019    0.82001956    -0.44880000
opls_520-257    N    0.03416002    0.98061998    0.83087035    -0.26780000
