#======================================================================
# Crystal Data Generated By AuToFF
#----------------------------------------------------------------------

data_AuToFF_phase_1

_cell_length_a                         29.9840
_cell_length_b                         29.9840
_cell_length_c                         3.8910
_cell_angle_alpha                      90.00
_cell_angle_beta                       90.00
_cell_angle_gamma                      120.00
_symmetry_space_group_name_H-M_alt     'P 1'
_symmetry_space_group_IT_number        1

loop_
_space_group_symop_operation_xyz
   'x, y, z'

loop_
   _atom_site_label
   _atom_site_type_symbol
   _atom_site_fract_x
   _atom_site_fract_y
   _atom_site_fract_z
   _atom_site_charge
opls_238-0    N    0.19344006    0.09385984    0.96222051    -0.18600000
opls_750-1    N    0.14194003    0.08013006    0.00840915    -0.14950000
opls_238-2    N    0.47303993    0.24272006    0.42878951    -0.18600000
opls_750-3    N    0.52442986    0.25570004    0.38772038    -0.12760000
opls_288-4    N    0.23139986    0.86530973    0.83164996    0.20360000
opls_238-5    N    0.90613996    0.09957981    0.96222051    -0.18600000
opls_750-6    N    0.91987002    0.06180982    0.00840915    -0.14950000
opls_238-7    N    0.75728016    0.23032005    0.42878951    -0.18600000
opls_750-8    N    0.74430001    0.26873009    0.38772038    -0.12760000
opls_288-9    N    0.13468976    0.36608977    0.83164996    0.20360000
opls_238-10    N    0.90042012    0.80655996    0.96222051    -0.18600000
opls_750-11    N    0.93818975    0.85805974    0.00840915    -0.14950000
opls_238-12    N    0.76967992    0.52695989    0.42878951    -0.18600000
opls_750-13    N    0.73126979    0.47556987    0.38772038    -0.12760000
opls_288-14    N    0.63390999    0.76859973    0.83164996    0.20360000
opls_234-15    C    0.23273000    0.14645986    0.92725006    0.48340000
opls_700-16    C    0.28427983    0.15879980    0.80491904    -0.17600000
opls_145-17    C    0.29055997    0.11880004    0.67471087    -0.19740000
opls_166-18    C    0.33830004    0.12740985    0.55143922    0.24290000
opls_700-19    C    0.38108990    0.17780013    0.56448985    -0.22020000
opls_145-20    C    0.37463004    0.21792004    0.69227962    -0.20470000
opls_166-21    C    0.32697991    0.20900985    0.81051915    0.32070000
opls_234-22    C    0.43308999    0.19018012    0.45044976    0.49280000
opls_142-23    C    0.10722001    0.03214014    0.03389103    -0.02760000
opls_700-24    C    0.05265003    0.01622989    0.06295040    0.06890000
opls_145-25    C    0.03622994    0.05250991    0.06168080    -0.08990000
opls_142-26    C    0.55995009    0.30349010    0.37044976    -0.02780000
opls_700-27    C    0.61428010    0.31826005    0.34518890    0.06830000
opls_145-28    C    0.65152999    0.37043992    0.34632999    -0.08990000
opls_182-29    C    0.29774984    0.04111001    0.33589052    0.05760000
opls_136-30    C    0.30990998    0.00007009    0.22371113    -0.18210000
opls_136-31    C    0.26197005    0.95495999    0.07452069    -0.16670000
opls_136-32    C    0.27099005    0.90937004    0.02802878    -0.10980000
opls_135-33    C    0.25958973    0.84716972    0.62811103    -0.30140000
opls_135-34    C    0.19627981    0.82146971    0.03783089    -0.22020000
opls_135-35    C    0.67932992    0.80092972    0.62525058    -0.22020000
opls_234-36    C    0.85353978    0.08626979    0.92725006    0.48340000
opls_700-37    C    0.84119989    0.12548008    0.80491904    -0.17600000
opls_145-38    C    0.88119991    0.17176014    0.67471087    -0.19740000
opls_166-39    C    0.87259011    0.21088994    0.55143922    0.24290000
opls_700-40    C    0.82219990    0.20328988    0.56448985    -0.22020000
opls_145-41    C    0.78207990    0.15670983    0.69227962    -0.20470000
opls_166-42    C    0.79099014    0.11797014    0.81051915    0.32070000
opls_234-43    C    0.80982009    0.24290992    0.45044976    0.49280000
opls_142-44    C    0.96785992    0.07508017    0.03389103    -0.02780000
opls_700-45    C    0.98376987    0.03641981    0.06295040    0.06890000
opls_145-46    C    0.94748984    0.98371966    0.06168080    -0.08990000
opls_142-47    C    0.69651001    0.25645986    0.37044976    -0.02780000
opls_700-48    C    0.68173990    0.29601982    0.34518890    0.06830000
opls_145-49    C    0.62956017    0.28109005    0.34632999    -0.08990000
opls_182-50    C    0.95889001    0.25664009    0.33589052    0.05760000
opls_136-51    C    0.99993006    0.30984010    0.22371113    -0.18210000
opls_136-52    C    0.04504013    0.30700996    0.07452069    -0.16670000
opls_136-53    C    0.09062983    0.36161985    0.02802878    -0.10980000
opls_135-54    C    0.15282981    0.41241988    0.62811103    -0.30140000
opls_135-55    C    0.17852998    0.37481009    0.03783089    -0.22010000
opls_135-56    C    0.19906986    0.87839986    0.62525058    -0.22020000
opls_234-57    C    0.91373003    0.76726996    0.92725006    0.48340000
opls_700-58    C    0.87451975    0.71571974    0.80491904    -0.17600000
opls_145-59    C    0.82823979    0.70943982    0.67471087    -0.19730000
opls_166-60    C    0.78910999    0.66169983    0.55143922    0.24300000
opls_700-61    C    0.79670986    0.61890999    0.56448985    -0.22020000
opls_145-62    C    0.84328986    0.62536975    0.69227962    -0.20470000
opls_166-63    C    0.88202995    0.67302001    0.81051915    0.32070000
opls_234-64    C    0.75708992    0.56690996    0.45044976    0.49280000
opls_142-65    C    0.92491973    0.89277970    0.03389103    -0.02780000
opls_700-66    C    0.96357991    0.94734992    0.06295040    0.06890000
opls_145-67    C    0.01627984    0.96376966    0.06168080    -0.08990000
opls_142-68    C    0.74353990    0.44005005    0.37044976    -0.02780000
opls_700-69    C    0.70397980    0.38571975    0.34518890    0.06830000
opls_145-70    C    0.71891018    0.34847003    0.34632999    -0.08990000
opls_182-71    C    0.74335981    0.70224990    0.33589052    0.05760000
opls_136-72    C    0.69015997    0.69008981    0.22371113    -0.18210000
opls_136-73    C    0.69299015    0.73803005    0.07452069    -0.16670000
opls_136-74    C    0.63837993    0.72900973    0.02802878    -0.10980000
opls_135-75    C    0.58757994    0.74041001    0.62811103    -0.30140000
opls_135-76    C    0.62519001    0.80371981    0.03783089    -0.22020000
opls_135-77    C    0.12160003    0.32067004    0.62525058    -0.22010000
opls_236-78    O    0.22311993    0.18054016    0.99307119    -0.34680000
opls_236-79    O    0.44255999    0.15611985    0.38092007    -0.34790000
opls_167-80    O    0.32309006    0.24956993    0.93578001    -0.40050000
opls_179-81    O    0.34426002    0.08690984    0.42154973    -0.20000000
opls_236-82    O    0.81946000    0.04257996    0.99307119    -0.34680000
opls_236-83    O    0.84387999    0.28643993    0.38092007    -0.34790000
opls_167-84    O    0.75043001    0.07352011    0.93578001    -0.40050000
opls_179-85    O    0.91308994    0.25734983    0.42154973    -0.19990000
opls_236-86    O    0.95742006    0.77687988    0.99307119    -0.34690000
opls_236-87    O    0.71355983    0.55743983    0.38092007    -0.34790000
opls_167-88    O    0.92647993    0.67690996    0.93578001    -0.40050000
opls_179-89    O    0.74264985    0.65573994    0.42154973    -0.20000000
opls_910-90    H    0.20357019    0.06298015    0.95291956    0.22530000
opls_146-91    H    0.25640992    0.07785986    0.66648933    0.04620000
opls_146-92    H    0.40876990    0.25886985    0.70105885    0.04620000
opls_144-93    H    0.11890014    0.00133015    0.03399897    0.02730000
opls_146-94    H    0.06576991    0.09540989    0.05959907    0.04620000
opls_910-95    H    0.46348005    0.27396983    0.44455924    0.22540000
opls_144-96    H    0.54917979    0.33495976    0.37478026    0.02730000
opls_146-97    H    0.63932997    0.40085979    0.34820098    0.04620000
opls_168-98    H    0.36221018    0.28262007    0.98499871    0.30040000
opls_185-99    H    0.27762982    0.04946988    0.11756104    0.04210000
opls_185-100    H    0.27141996    0.02700013    0.57021074    0.04210000
opls_140-101    H    0.32347004    0.98662991    0.45472115    0.11170000
opls_140-102    H    0.34155005    0.01659997    0.02066050    0.11170000
opls_140-103    H    0.22818995    0.94358975    0.25667952    0.11170000
opls_140-104    H    0.25299980    0.96623973    0.81473914    0.11170000
opls_140-105    H    0.27421986    0.89507993    0.29327936    0.05070000
opls_140-106    H    0.30882984    0.92269970    0.88583912    0.05070000
opls_140-107    H    0.25069975    0.84808974    0.34420971    0.11990000
opls_140-108    H    0.24760014    0.80603006    0.70613981    0.11990000
opls_140-109    H    0.30265994    0.87310003    0.67379080    0.11990000
opls_140-110    H    0.21467985    0.79707982    0.09938062    0.11990000
opls_140-111    H    0.15899970    0.79726968    0.88919044    0.11990000
opls_140-112    H    0.18751983    0.83553992    0.28723978    -0.11110000
opls_140-113    H    0.66692010    0.80716997    0.36108969    -0.11110000
opls_140-114    H    0.70324009    0.78124005    0.59500900    0.11990000
opls_140-115    H    0.70338980    0.83968982    0.75800051    0.11990000
opls_910-116    H    0.93701996    0.14059008    0.95291956    0.22530000
opls_146-117    H    0.92213983    0.17854993    0.66648933    0.04620000
opls_146-118    H    0.74112997    0.14990001    0.70105885    0.04620000
opls_144-119    H    0.99866995    0.11757002    0.03399897    0.02730000
opls_146-120    H    0.90459000    0.97035997    0.05959907    0.04620000
opls_910-121    H    0.72603003    0.18951003    0.44455924    0.22530000
opls_144-122    H    0.66503987    0.21421994    0.37478026    0.02730000
opls_146-123    H    0.59913997    0.23847004    0.34820098    0.04620000
opls_168-124    H    0.71738012    0.07959014    0.98499871    0.30040000
opls_185-125    H    0.95053010    0.22815999    0.11756104    0.04210000
opls_185-126    H    0.97300005    0.24441992    0.57021074    0.04210000
opls_140-127    H    0.01336990    0.33683985    0.45472115    0.11170000
opls_140-128    H    0.98340021    0.32495010    0.02066050    0.11170000
opls_140-129    H    0.05640981    0.28459990    0.25667952    0.11170000
opls_140-130    H    0.03375985    0.28675996    0.81473914    0.11170000
opls_140-131    H    0.10491977    0.37913984    0.29327936    0.05070000
opls_140-132    H    0.07729987    0.38612989    0.88583912    0.05070000
opls_140-133    H    0.15191003    0.40261009    0.34420971    0.11990000
opls_140-134    H    0.19397006    0.44157006    0.70613981    0.11990000
opls_140-135    H    0.12690002    0.42955977    0.67379080    0.11990000
opls_140-136    H    0.20291983    0.41759994    0.09938062    0.11990000
opls_140-137    H    0.20272999    0.36172999    0.88919044    0.11990000
opls_140-138    H    0.16445979    0.35197989    0.28723978    -0.11110000
opls_140-139    H    0.19282989    0.85974997    0.36108969    -0.11110000
opls_140-140    H    0.21876012    0.92199996    0.59500900    0.12000000
opls_140-141    H    0.16030984    0.86369999    0.75800051    0.11990000
opls_910-142    H    0.85940985    0.79642976    0.95291956    0.22530000
opls_146-143    H    0.82145006    0.74358982    0.66648933    0.04620000
opls_146-144    H    0.85009994    0.59122976    0.70105885    0.04620000
opls_144-145    H    0.88242992    0.88109983    0.03399897    0.02730000
opls_146-146    H    0.02963989    0.93422976    0.05959907    0.04620000
opls_910-147    H    0.81048973    0.53651975    0.44455924    0.22530000
opls_144-148    H    0.78577982    0.45081991    0.37478026    0.02730000
opls_146-149    H    0.76152987    0.36066979    0.34820098    0.04620000
opls_168-150    H    0.92041003    0.63778979    0.98499871    0.30040000
opls_185-151    H    0.77183989    0.72236974    0.11756104    0.04210000
opls_185-152    H    0.75558000    0.72857995    0.57021074    0.04210000
opls_140-153    H    0.66315987    0.67652986    0.45472115    0.11170000
opls_140-154    H    0.67505007    0.65844993    0.02066050    0.11170000
opls_140-155    H    0.71540005    0.77180997    0.25667952    0.11170000
opls_140-156    H    0.71323983    0.74699993    0.81473914    0.11170000
opls_140-157    H    0.62085984    0.72577985    0.29327936    0.05070000
opls_140-158    H    0.61387010    0.69117003    0.88583912    0.05070000
opls_140-159    H    0.59739002    0.74929978    0.34420971    0.12000000
opls_140-160    H    0.55842980    0.75239988    0.70613981    0.11990000
opls_140-161    H    0.57043985    0.69733981    0.67379080    0.11990000
opls_140-162    H    0.58239979    0.78531986    0.09938062    0.11990000
opls_140-163    H    0.63827012    0.84099995    0.88919044    0.11990000
opls_140-164    H    0.64801985    0.81247981    0.28723978    -0.11110000
opls_140-165    H    0.14025001    0.33308006    0.36108969    -0.11110000
opls_140-166    H    0.07800013    0.29675999    0.59500900    0.11990000
opls_140-167    H    0.13629983    0.29660980    0.75800051    0.11990000
