#======================================================================
# Crystal Data Generated By AuToFF
#----------------------------------------------------------------------

data_AuToFF_phase_1

_cell_length_a                         35.9160
_cell_length_b                         35.9160
_cell_length_c                         3.4330
_cell_angle_alpha                      90.00
_cell_angle_beta                       90.00
_cell_angle_gamma                      120.00
_symmetry_space_group_name_H-M_alt     'P 1'
_symmetry_space_group_IT_number        1

loop_
_space_group_symop_operation_xyz
   'x, y, z'

loop_
   _atom_site_label
   _atom_site_type_symbol
   _atom_site_fract_x
   _atom_site_fract_y
   _atom_site_fract_z
   _atom_site_charge
opls_567-0    C    0.33574011    0.70615001    0.00000000    -0.03650000
opls_700-1    C    0.29579016    0.66935012    0.00000000    0.00100000
opls_567-2    C    0.37704992    0.60111008    0.00000000    -0.02620000
opls_716-3    C    0.33527004    0.59021990    0.00000000    -0.19210000
opls_142-4    C    0.39370990    0.57362984    0.00000000    0.06420000
opls_145-5    C    0.49591984    0.58332982    0.00000000    -0.23160000
opls_145-6    C    0.45146985    0.56372988    0.00000000    0.17830000
opls_145-7    C    0.42662984    0.51907992    0.00000000    -0.23150000
opls_145-8    C    0.44588004    0.49499987    0.00000000    -0.22340000
opls_700-9    C    0.49028991    0.51349996    0.00000000    0.07910000
opls_145-10    C    0.51495001    0.55828013    0.00000000    -0.22330000
opls_567-11    C    0.29384995    0.62958986    0.00000000    -0.03650000
opls_700-12    C    0.33065017    0.62644012    0.00000000    0.00100000
opls_567-13    C    0.39888993    0.77594001    0.00000000    -0.02620000
opls_716-14    C    0.40977995    0.74504994    0.00000000    -0.19210000
opls_142-15    C    0.42637008    0.82008007    0.00000000    0.06420000
opls_145-16    C    0.41666997    0.91258986    0.00000000    -0.23160000
opls_145-17    C    0.43626995    0.88773981    0.00000000    0.17830000
opls_145-18    C    0.48092001    0.90755002    0.00000000    -0.23150000
opls_145-19    C    0.50500003    0.95087990    0.00000000    -0.22340000
opls_700-20    C    0.48649999    0.97678993    0.00000000    0.07910000
opls_145-21    C    0.44172002    0.95666980    0.00000000    -0.22330000
opls_567-22    C    0.37040978    0.66425981    0.00000000    -0.03650000
opls_700-23    C    0.37356010    0.70421008    0.00000000    0.00100000
opls_567-24    C    0.22405988    0.62294991    0.00000000    -0.02620000
opls_716-25    C    0.25494984    0.66472984    0.00000000    -0.19210000
opls_142-26    C    0.17992002    0.60629009    0.00000000    0.06420000
opls_145-27    C    0.08741003    0.50408000    0.00000000    -0.23160000
opls_145-28    C    0.11226004    0.54852999    0.00000000    0.17830000
opls_145-29    C    0.09245015    0.57337007    0.00000000    -0.23150000
opls_145-30    C    0.04912004    0.55411991    0.00000000    -0.22340000
opls_700-31    C    0.02321011    0.50971011    0.00000000    0.07910000
opls_145-32    C    0.04332997    0.48505008    0.00000000    -0.22330000
opls_567-33    C    0.66425989    0.29384999    0.00000000    -0.03650000
opls_700-34    C    0.70420984    0.33064988    0.00000000    0.00100000
opls_567-35    C    0.62295008    0.39888992    0.00000000    -0.02620000
opls_716-36    C    0.66472996    0.40978010    0.00000000    -0.19210000
opls_142-37    C    0.60628994    0.42636984    0.00000000    0.06420000
opls_145-38    C    0.50408000    0.41666985    0.00000000    -0.23160000
opls_145-39    C    0.54853015    0.43627012    0.00000000    0.17830000
opls_145-40    C    0.57337016    0.48092008    0.00000000    -0.23150000
opls_145-41    C    0.55411996    0.50500013    0.00000000    -0.22340000
opls_700-42    C    0.50971009    0.48650004    0.00000000    0.07910000
opls_145-43    C    0.48504999    0.44171987    0.00000000    -0.22330000
opls_567-44    C    0.70615005    0.37041014    0.00000000    -0.03650000
opls_700-45    C    0.66934983    0.37355988    0.00000000    0.00100000
opls_567-46    C    0.60111007    0.22405999    0.00000000    -0.02620000
opls_716-47    C    0.59022005    0.25495006    0.00000000    -0.19210000
opls_142-48    C    0.57362992    0.17991993    0.00000000    0.06420000
opls_145-49    C    0.58333003    0.08741014    0.00000000    -0.23160000
opls_145-50    C    0.56372989    0.11225987    0.00000000    0.17830000
opls_145-51    C    0.51907999    0.09244998    0.00000000    -0.23150000
opls_145-52    C    0.49499997    0.04912010    0.00000000    -0.22330000
opls_700-53    C    0.51350001    0.02321007    0.00000000    0.07910000
opls_145-54    C    0.55827982    0.04332988    0.00000000    -0.22330000
opls_567-55    C    0.62959006    0.33573987    0.00000000    -0.03650000
opls_700-56    C    0.62643990    0.29578992    0.00000000    0.00100000
opls_567-57    C    0.77594012    0.37705009    0.00000000    -0.02620000
opls_716-58    C    0.74505000    0.33526984    0.00000000    -0.19210000
opls_142-59    C    0.82007998    0.39370991    0.00000000    0.06420000
opls_145-60    C    0.91258997    0.49592000    0.00000000    -0.23160000
opls_145-61    C    0.88773996    0.45147001    0.00000000    0.17830000
opls_145-62    C    0.90754985    0.42662993    0.00000000    -0.23150000
opls_145-63    C    0.95087996    0.44588009    0.00000000    -0.22340000
opls_700-64    C    0.97678989    0.49028989    0.00000000    0.07910000
opls_145-65    C    0.95667003    0.51494992    0.00000000    -0.22330000
opls_633-66    S    0.41214999    0.65506008    0.00000000    0.06410000
opls_633-67    S    0.34493982    0.75708981    0.00000000    0.06410000
opls_633-68    S    0.24291019    0.58785012    0.00000000    0.06400000
opls_633-69    S    0.58785001    0.34493992    0.00000000    0.06400000
opls_633-70    S    0.65506002    0.24290987    0.00000000    0.06400000
opls_633-71    S    0.75708981    0.41214988    0.00000000    0.06400000
opls_750-72    N    0.43426984    0.58982992    0.00000000    -0.20770000
opls_750-73    N    0.41016985    0.84443983    0.00000000    -0.20770000
opls_750-74    N    0.15555987    0.56572993    0.00000000    -0.20760000
opls_750-75    N    0.56573016    0.41017008    0.00000000    -0.20770000
opls_750-76    N    0.58982999    0.15555985    0.00000000    -0.20770000
opls_750-77    N    0.84444013    0.43427007    0.00000000    -0.20770000
opls_570-78    H    0.30964997    0.55764999    0.00000000    0.09120000
opls_144-79    H    0.37031994    0.53977007    0.00000000    0.08260000
opls_146-80    H    0.51444988    0.61728990    0.00000000    0.20370000
opls_146-81    H    0.39227999    0.50285991    0.00000000    0.20430000
opls_146-82    H    0.42600991    0.46088997    0.00000000    0.19960000
opls_146-83    H    0.54924986    0.57401982    0.00000000    0.20430000
opls_570-84    H    0.44235000    0.75199981    0.00000000    0.09110000
opls_144-85    H    0.46022992    0.83055005    0.00000000    0.08260000
opls_146-86    H    0.38270996    0.89716009    0.00000000    0.20380000
opls_146-87    H    0.49714010    0.88941997    0.00000000    0.20430000
opls_146-88    H    0.53911006    0.96512011    0.00000000    0.19960000
opls_146-89    H    0.42598008    0.97523001    0.00000000    0.20430000
opls_570-90    H    0.24799986    0.69034988    0.00000000    0.09110000
opls_144-91    H    0.16944986    0.62967988    0.00000000    0.08260000
opls_146-92    H    0.10283988    0.48555001    0.00000000    0.20370000
opls_146-93    H    0.11058019    0.60772012    0.00000000    0.20430000
opls_146-94    H    0.03488002    0.57398992    0.00000000    0.19960000
opls_146-95    H    0.02476990    0.45074985    0.00000000    0.20430000
opls_570-96    H    0.69035003    0.44235001    0.00000000    0.09110000
opls_144-97    H    0.62968006    0.46022993    0.00000000    0.08260000
opls_146-98    H    0.48555012    0.38271010    0.00000000    0.20370000
opls_146-99    H    0.60772001    0.49714009    0.00000000    0.20430000
opls_146-100    H    0.57399009    0.53911003    0.00000000    0.19960000
opls_146-101    H    0.45074998    0.42597986    0.00000000    0.20430000
opls_570-102    H    0.55764984    0.24799987    0.00000000    0.09110000
opls_144-103    H    0.53977008    0.16944995    0.00000000    0.08260000
opls_146-104    H    0.61729004    0.10283991    0.00000000    0.20370000
opls_146-105    H    0.50285990    0.11058003    0.00000000    0.20430000
opls_146-106    H    0.46088994    0.03487989    0.00000000    0.19960000
opls_146-107    H    0.57401992    0.02476999    0.00000000    0.20430000
opls_570-108    H    0.75200014    0.30965012    0.00000000    0.09110000
opls_144-109    H    0.83055014    0.37032012    0.00000000    0.08260000
opls_146-110    H    0.89716012    0.51444999    0.00000000    0.20370000
opls_146-111    H    0.88941981    0.39227988    0.00000000    0.20430000
opls_146-112    H    0.96511998    0.42601008    0.00000000    0.19960000
opls_146-113    H    0.97522994    0.54924983    0.00000000    0.20430000
