#======================================================================
# Crystal Data Generated By AuToFF
#----------------------------------------------------------------------

data_AuToFF_phase_1

_cell_length_a                         29.0899
_cell_length_b                         29.0899
_cell_length_c                         5.6207
_cell_angle_alpha                      90.00
_cell_angle_beta                       90.00
_cell_angle_gamma                      120.00
_symmetry_space_group_name_H-M_alt     'P 1'
_symmetry_space_group_IT_number        1

loop_
_space_group_symop_operation_xyz
   'x, y, z'

loop_
   _atom_site_label
   _atom_site_type_symbol
   _atom_site_fract_x
   _atom_site_fract_y
   _atom_site_fract_z
   _atom_site_charge
opls_146-0    H    0.30176014    0.57001999    0.00000000    0.05200000
opls_144-1    H    0.45113994    0.66333989    0.00000000    0.03070000
opls_146-2    H    0.49903008    0.63617992    0.00000000    0.05200000
opls_146-3    H    0.55248996    0.59162992    0.00000000    0.05200000
opls_146-4    H    0.40867023    0.43966023    0.00000000    0.05200000
opls_146-5    H    0.42987010    0.73215021    0.00000000    0.05200000
opls_144-6    H    0.33665981    0.78779990    0.00000000    0.03070000
opls_146-7    H    0.36381997    0.86286007    0.00000000    0.05200000
opls_146-8    H    0.40836990    0.96085992    0.00000000    0.05200000
opls_146-9    H    0.56033988    0.96900994    0.00000000    0.05200000
opls_146-10    H    0.26785022    0.69772024    0.00000000    0.05200000
opls_144-11    H    0.21220025    0.54886020    0.00000000    0.03070000
opls_146-12    H    0.13714013    0.50096993    0.00000000    0.05200000
opls_146-13    H    0.03914015    0.44751016    0.00000000    0.05200000
opls_146-14    H    0.03099009    0.59133023    0.00000000    0.05200000
opls_146-15    H    0.69823986    0.42998001    0.00000000    0.05200000
opls_144-16    H    0.54886006    0.33666011    0.00000000    0.03070000
opls_146-17    H    0.50096992    0.36382008    0.00000000    0.05200000
opls_146-18    H    0.44751004    0.40837008    0.00000000    0.05200000
opls_146-19    H    0.59132997    0.56034016    0.00000000    0.05200000
opls_146-20    H    0.57013010    0.26785019    0.00000000    0.05200000
opls_144-21    H    0.66334019    0.21220010    0.00000000    0.03070000
opls_146-22    H    0.63618003    0.13713993    0.00000000    0.05200000
opls_146-23    H    0.59163010    0.03914008    0.00000000    0.05200000
opls_146-24    H    0.43966012    0.03099006    0.00000000    0.05200000
opls_146-25    H    0.73214998    0.30228015    0.00000000    0.05200000
opls_144-26    H    0.78779994    0.45114020    0.00000000    0.03070000
opls_146-27    H    0.86285987    0.49903007    0.00000000    0.05200000
opls_146-28    H    0.96086005    0.55249024    0.00000000    0.05200000
opls_146-29    H    0.96901011    0.40867017    0.00000000    0.05200000
opls_146-30    H    0.35623009    0.48393000    0.00000000    0.05200000
opls_146-31    H    0.12840998    0.64380995    0.00000000    0.05200000
opls_146-32    H    0.64381009    0.51540989    0.00000000    0.05200000
opls_146-33    H    0.48393009    0.12769985    0.00000000    0.05200000
opls_146-34    H    0.87230000    0.35623015    0.00000000    0.05200000
opls_145-35    C    0.31637983    0.61441995    0.00000000    -0.09590000
opls_142-36    C    0.40695983    0.63275987    0.00000000    0.15120000
opls_145-37    C    0.42476018    0.56216014    0.00000000    0.27410000
opls_145-38    C    0.47820006    0.59097020    0.00000000    -0.15010000
opls_145-39    C    0.50731019    0.56690003    0.00000000    -0.14440000
opls_145-40    C    0.48421998    0.51309016    0.00000000    0.09960000
opls_145-41    C    0.43027023    0.48490012    0.00000000    -0.14440000
opls_145-42    C    0.40138011    0.50916003    0.00000000    -0.15000000
opls_145-43    C    0.36893003    0.64967000    0.00000000    0.01510000
opls_145-44    C    0.38557997    0.70195998    0.00000000    -0.09590000
opls_142-45    C    0.36723998    0.77420027    0.00000000    0.15120000
opls_145-46    C    0.43784011    0.86260007    0.00000000    0.22130000
opls_145-47    C    0.40903011    0.88722994    0.00000000    -0.15010000
opls_145-48    C    0.43310015    0.94041026    0.00000000    -0.14440000
opls_145-49    C    0.48691014    0.97113000    0.00000000    0.09960000
opls_145-50    C    0.51510009    0.94537005    0.00000000    -0.12350000
opls_145-51    C    0.49083991    0.89221989    0.00000000    -0.12570000
opls_145-52    C    0.35032982    0.71925991    0.00000000    0.01510000
opls_145-53    C    0.29804020    0.68362006    0.00000000    -0.09590000
opls_142-54    C    0.22579985    0.59303986    0.00000000    0.15120000
opls_145-55    C    0.13740025    0.57524018    0.00000000    0.27410000
opls_145-56    C    0.11276982    0.52179986    0.00000000    -0.15000000
opls_145-57    C    0.05959020    0.49269011    0.00000000    -0.14440000
opls_145-58    C    0.02887008    0.51578024    0.00000000    0.09960000
opls_145-59    C    0.05463022    0.56973023    0.00000000    -0.14440000
opls_145-60    C    0.10777999    0.59862007    0.00000000    -0.14990000
opls_145-61    C    0.28074015    0.63107009    0.00000000    0.01510000
opls_145-62    C    0.68362017    0.38558005    0.00000000    -0.09580000
opls_142-63    C    0.59304017    0.36724013    0.00000000    0.15120000
opls_145-64    C    0.57523982    0.43783986    0.00000000    0.27410000
opls_145-65    C    0.52180013    0.40903019    0.00000000    -0.15010000
opls_145-66    C    0.49268981    0.43309997    0.00000000    -0.14440000
opls_145-67    C    0.51578022    0.48691024    0.00000000    0.09960000
opls_145-68    C    0.56972977    0.51509988    0.00000000    -0.14440000
opls_145-69    C    0.59861989    0.49083997    0.00000000    -0.14990000
opls_145-70    C    0.63106997    0.35033000    0.00000000    0.01510000
opls_145-71    C    0.61442003    0.29804002    0.00000000    -0.09590000
opls_142-72    C    0.63276022    0.22580013    0.00000000    0.15140000
opls_145-73    C    0.56215989    0.13739993    0.00000000    0.27420000
opls_145-74    C    0.59096989    0.11277006    0.00000000    -0.15010000
opls_145-75    C    0.56690005    0.05959014    0.00000000    -0.14430000
opls_145-76    C    0.51308986    0.02887000    0.00000000    0.09960000
opls_145-77    C    0.48489991    0.05462995    0.00000000    -0.14440000
opls_145-78    C    0.50916009    0.10778011    0.00000000    -0.15000000
opls_145-79    C    0.64967018    0.28074009    0.00000000    0.01510000
opls_145-80    C    0.70195980    0.31637994    0.00000000    -0.09590000
opls_142-81    C    0.77420015    0.40696014    0.00000000    0.15130000
opls_145-82    C    0.86259994    0.42476022    0.00000000    0.27410000
opls_145-83    C    0.88723018    0.47820014    0.00000000    -0.15010000
opls_145-84    C    0.94040980    0.50730989    0.00000000    -0.14440000
opls_145-85    C    0.97113012    0.48422016    0.00000000    0.09960000
opls_145-86    C    0.94536998    0.43027017    0.00000000    -0.14430000
opls_145-87    C    0.89222001    0.40137993    0.00000000    -0.15000000
opls_145-88    C    0.71925985    0.36892991    0.00000000    0.01510000
opls_750-89    N    0.39261024    0.58453021    0.00000000    -0.13450000
opls_750-90    N    0.41547012    0.80808007    0.00000000    -0.13450000
opls_750-91    N    0.19192018    0.60739011    0.00000000    -0.13450000
opls_750-92    N    0.60738995    0.41547018    0.00000000    -0.13450000
opls_750-93    N    0.58452988    0.19191993    0.00000000    -0.13440000
opls_750-94    N    0.80807982    0.39260989    0.00000000    -0.13450000
opls_494-95    O    0.57786992    0.90488989    0.17665060    -0.39430000
opls_494-96    O    0.57786992    0.90488989    0.82334940    -0.39430000
opls_494-97    O    0.49977994    0.78550002    0.00000000    -0.39420000
opls_474-98    S    0.52587013    0.85541026    0.00000000    1.17290000
