#======================================================================
# Crystal Data Generated By AuToFF
#----------------------------------------------------------------------

data_AuToFF_phase_1

_cell_length_a                         23.8649
_cell_length_b                         3.8186
_cell_length_c                         25.6370
_cell_angle_alpha                      86.91
_cell_angle_beta                       88.48
_cell_angle_gamma                      89.98
_symmetry_space_group_name_H-M_alt     'P 1'
_symmetry_space_group_IT_number        1

loop_
_space_group_symop_operation_xyz
   'x, y, z'

loop_
   _atom_site_label
   _atom_site_type_symbol
   _atom_site_fract_x
   _atom_site_fract_y
   _atom_site_fract_z
   _atom_site_charge
opls_145-0    C    0.55500981    0.13061095    0.41413982    -0.10470000
opls_700-1    C    0.49865975    0.05076000    0.42369988    0.04630000
opls_700-2    C    0.48074012    0.02203963    0.47858004    -0.00070000
opls_700-3    C    0.57657006    0.03670099    0.50980995    0.03170000
opls_145-4    C    0.59277009    0.12365027    0.45586997    -0.08510000
opls_700-5    C    0.45974999    0.01968006    0.37962983    0.02810000
opls_145-6    C    0.40365996    0.99116057    0.39341991    -0.06270000
opls_700-7    C    0.38358998    0.02163862    0.44696991    0.03890000
opls_700-8    C    0.47437013    0.02142877    0.32309986    0.06840000
opls_700-9    C    0.32517004    0.02757893    0.45510016    0.06720000
opls_145-10    C    0.52174975    0.83897913    0.30173988    -0.08950000
opls_145-11    C    0.53165992    0.82095094    0.24628998    -0.10750000
opls_145-12    C    0.49555968    0.97428998    0.20800989    0.20350000
opls_145-13    C    0.44913987    0.15639081    0.22811005    -0.10910000
opls_145-14    C    0.43891987    0.18426998    0.28333017    -0.09050000
opls_145-15    C    0.71046984    0.15844853    0.58508998    -0.10180000
opls_145-16    C    0.76715970    0.13684850    0.58109012    -0.10420000
opls_145-17    C    0.79293981    0.96753021    0.53688017    0.20020000
opls_145-18    C    0.75899981    0.81280963    0.49672012    -0.11650000
opls_145-19    C    0.70211963    0.82362037    0.50043004    -0.10180000
opls_142-20    C    0.88117961    0.96377052    0.49068984    0.01480000
opls_700-21    C    0.94121986    0.94651913    0.49528992    -0.03280000
opls_142-22    C    0.53141951    0.94027909    0.88648013    0.02650000
opls_700-23    C    0.51526977    0.94168861    0.94387994    -0.03350000
opls_145-24    C    0.96726962    0.84828972    0.54391980    -0.21580000
opls_166-25    C    0.02434971    0.83176004    0.54932017    0.25060000
opls_145-26    C    0.45993978    0.94154022    0.96031003    -0.20470000
opls_166-27    C    0.44408996    0.95046901    0.01482991    0.28740000
opls_145-28    C    0.44546987    0.12475895    0.58610988    -0.09010000
opls_700-29    C    0.50144982    0.03699037    0.57615984    0.03300000
opls_700-30    C    0.51930004    0.01460927    0.52118980    0.00000000
opls_700-31    C    0.42360004    0.05250068    0.49007008    0.02470000
opls_145-32    C    0.40775996    0.13325096    0.54435980    -0.08920000
opls_145-33    C    0.59611981    0.95453039    0.60617017    -0.07140000
opls_700-34    C    0.61640976    0.99306886    0.55284018    0.03290000
opls_700-35    C    0.52581966    0.99831015    0.67665005    0.07060000
opls_700-36    C    0.67488964    0.99834875    0.54509014    0.07080000
opls_145-37    C    0.47808988    0.82098094    0.69833007    -0.08950000
opls_145-38    C    0.46830960    0.80631939    0.75382998    -0.11560000
opls_145-39    C    0.50478968    0.95902878    0.79182989    0.19750000
opls_145-40    C    0.55150993    0.13669029    0.77139016    -0.13050000
opls_145-41    C    0.56170998    0.16051986    0.71613018    -0.10190000
opls_145-42    C    0.28931978    0.19585945    0.41619993    -0.08260000
opls_145-43    C    0.23265005    0.18098850    0.42130019    -0.14850000
opls_145-44    C    0.20708010    0.00778075    0.46529990    0.21230000
opls_145-45    C    0.24140962    0.84264877    0.50413996    -0.15330000
opls_145-46    C    0.29823987    0.84825035    0.49945000    -0.12020000
opls_142-47    C    0.11799958    0.90731077    0.50914995    0.03040000
opls_700-48    C    0.05794997    0.92044928    0.50408994    -0.03800000
opls_142-49    C    0.46896980    0.95020930    0.11339014    0.02640000
opls_700-50    C    0.48512983    0.94653889    0.05600009    -0.03350000
opls_145-51    C    0.03187003    0.01682931    0.45536002    -0.21430000
opls_166-52    C    0.97476982    0.03126856    0.44986001    0.25070000
opls_145-53    C    0.54045003    0.94354109    0.03958016    -0.20440000
opls_166-54    C    0.55631956    0.94778939    0.98503997    0.28550000
opls_181-55    C    0.01655970    0.57750864    0.63980016    -0.19390000
opls_181-56    C    0.64836015    0.13452961    0.00609984    -0.19420000
opls_181-57    C    0.98232982    0.28674083    0.35948005    -0.19370000
opls_181-58    C    0.35219986    0.13843981    0.99345000    -0.19440000
opls_700-59    C    0.54024959    0.98031994    0.62037017    0.03030000
opls_750-60    N    0.85110982    0.95316895    0.53472003    -0.27420000
opls_750-61    N    0.49387964    0.93334028    0.84835009    -0.20870000
opls_750-62    N    0.14882000    0.00326964    0.46824002    -0.26460000
opls_750-63    N    0.50650965    0.94441898    0.15154010    -0.21090000
opls_146-64    H    0.57014010    0.18978094    0.37276019    0.04870000
opls_146-65    H    0.63628005    0.17758911    0.44583005    0.12690000
opls_146-66    H    0.37342973    0.95555007    0.36009980    0.04300000
opls_146-67    H    0.54942977    0.69752937    0.32984993    0.05620000
opls_146-68    H    0.56805991    0.67432064    0.23178011    0.08450000
opls_146-69    H    0.42046972    0.28636962    0.19956000    0.10230000
opls_146-70    H    0.40229970    0.33250886    0.29699014    0.08450000
opls_146-71    H    0.69221972    0.29926878    0.62005990    0.04300000
opls_146-72    H    0.79270983    0.26161107    0.61291985    0.04240000
opls_146-73    H    0.77793987    0.67169897    0.46216988    0.04310000
opls_146-74    H    0.67726967    0.68417886    0.46961004    0.04240000
opls_144-75    H    0.86334996    0.99489057    0.44942001    0.02950000
opls_144-76    H    0.57613953    0.95111916    0.87753982    0.11630000
opls_146-77    H    0.94113997    0.78159032    0.57926993    0.13830000
opls_146-78    H    0.42746954    0.93448087    0.92874016    0.04490000
opls_146-79    H    0.43056991    0.17843933    0.62775015    0.04300000
opls_146-80    H    0.36451967    0.19377094    0.55462988    0.12350000
opls_146-81    H    0.62611955    0.91042987    0.63945004    0.04630000
opls_146-82    H    0.44998989    0.68157986    0.67037007    0.04300000
opls_146-83    H    0.43163995    0.66352883    0.76860987    0.12830000
opls_146-84    H    0.58045967    0.26616889    0.79971982    0.04300000
opls_146-85    H    0.59859984    0.30473934    0.70215018    0.13040000
opls_146-86    H    0.30730994    0.34046972    0.38148010    0.07170000
opls_146-87    H    0.20692992    0.31398951    0.39043017    0.04640000
opls_146-88    H    0.22314999    0.69789001    0.53864018    0.08630000
opls_146-89    H    0.32322974    0.70185909    0.52935014    0.05450000
opls_144-90    H    0.13511972    0.81693983    0.54851011    0.03080000
opls_144-91    H    0.42426985    0.96357917    0.12231012    0.11450000
opls_146-92    H    0.05793998    0.08244978    0.41993017    0.13160000
opls_146-93    H    0.57291997    0.93808014    0.07115004    0.04630000
opls_185-94    H    0.98959996    0.37409108    0.62222982    0.06570000
opls_185-95    H    0.99075984    0.77618989    0.66018010    0.09550000
opls_185-96    H    0.04377993    0.45438953    0.67042009    0.06550000
opls_185-97    H    0.66451980    0.95532894    0.03757007    0.07910000
opls_185-98    H    0.62698981    0.35405004    0.02633011    0.06350000
opls_185-99    H    0.68325007    0.24121921    0.98234994    0.11870000
opls_185-100    H    0.95499003    0.41379868    0.32935991    0.06630000
opls_185-101    H    0.00777003    0.08896031    0.33846980    0.09550000
opls_185-102    H    0.00960984    0.48762003    0.37727000    0.06570000
opls_185-103    H    0.31733997    0.24740045    0.01700999    0.09610000
opls_185-104    H    0.33594986    0.95773920    0.96224002    0.05970000
opls_185-105    H    0.37371992    0.35622977    0.97292001    0.12380000
opls_179-106    O    0.04975983    0.73594919    0.59840998    -0.19130000
opls_179-107    O    0.61205985    0.95099856    0.97009009    -0.18740000
opls_179-108    O    0.94929986    0.12562902    0.40074011    -0.19130000
opls_179-109    O    0.38834998    0.95620119    0.02977002    -0.16090000
