#======================================================================
# Crystal Data Generated By AuToFF
#----------------------------------------------------------------------

data_AuToFF_phase_1

_cell_length_a                         30.1750
_cell_length_b                         52.2719
_cell_length_c                         3.6528
_cell_angle_alpha                      90.00
_cell_angle_beta                       110.09
_cell_angle_gamma                      90.00
_symmetry_space_group_name_H-M_alt     'P 1'
_symmetry_space_group_IT_number        1

loop_
_space_group_symop_operation_xyz
   'x, y, z'

loop_
   _atom_site_label
   _atom_site_type_symbol
   _atom_site_fract_x
   _atom_site_fract_y
   _atom_site_fract_z
   _atom_site_charge
opls_700-0    C    0.52327001    0.80934001    0.47121840    0.02720000
opls_700-1    C    0.54789006    0.83312009    0.48651067    0.02730000
opls_145-2    C    0.59585999    0.83214997    0.50104796    -0.23570000
opls_166-3    C    0.61806007    0.80890000    0.49078995    0.15950000
opls_166-4    C    0.59402986    0.78609004    0.46575854    0.15950000
opls_145-5    C    0.54734999    0.78602002    0.45455022    -0.23570000
opls_700-6    C    0.02326998    0.30934001    0.47120965    0.02720000
opls_700-7    C    0.04789006    0.33312009    0.48651067    0.02740000
opls_145-8    C    0.09585999    0.33214997    0.50104796    -0.23570000
opls_166-9    C    0.11806007    0.30890000    0.49078995    0.15950000
opls_166-10    C    0.09402986    0.28609004    0.46575854    0.15950000
opls_145-11    C    0.04734999    0.28602002    0.45455022    -0.23570000
opls_700-12    C    0.52327001    0.19065999    0.47121840    0.02720000
opls_700-13    C    0.54789006    0.16687991    0.48651067    0.02730000
opls_145-14    C    0.59585999    0.16785003    0.50104796    -0.23570000
opls_166-15    C    0.61806007    0.19110000    0.49078995    0.15950000
opls_166-16    C    0.59402986    0.21390996    0.46575854    0.15950000
opls_145-17    C    0.54734999    0.21397998    0.45455022    -0.23570000
opls_700-18    C    0.02326998    0.69065999    0.47120965    0.02720000
opls_700-19    C    0.04789006    0.66687991    0.48651067    0.02730000
opls_145-20    C    0.09585999    0.66785003    0.50104796    -0.23570000
opls_166-21    C    0.11806007    0.69110000    0.49078995    0.15950000
opls_166-22    C    0.09402986    0.71390996    0.46575854    0.15960000
opls_145-23    C    0.04734999    0.71397998    0.45455022    -0.23570000
opls_700-24    C    0.47582985    0.80945996    0.47016898    0.02720000
opls_700-25    C    0.45149989    0.83335004    0.45436949    0.02730000
opls_145-26    C    0.45146016    0.78625992    0.48732980    -0.23570000
opls_166-27    C    0.40479998    0.78654000    0.47630805    0.15960000
opls_166-28    C    0.38103009    0.80944006    0.45120085    0.15950000
opls_145-29    C    0.40354005    0.83259992    0.44052890    -0.23570000
opls_700-30    C    0.97582985    0.30945996    0.47016898    0.02720000
opls_700-31    C    0.95149989    0.33335004    0.45436949    0.02730000
opls_145-32    C    0.95146016    0.28625992    0.48732980    -0.23570000
opls_166-33    C    0.90479998    0.28654000    0.47630805    0.15950000
opls_166-34    C    0.88103009    0.30944006    0.45120085    0.15950000
opls_145-35    C    0.90354005    0.33259992    0.44052890    -0.23570000
opls_700-36    C    0.47582985    0.19054004    0.47016898    0.02720000
opls_700-37    C    0.45149989    0.16664996    0.45436949    0.02730000
opls_145-38    C    0.45146016    0.21374008    0.48732980    -0.23560000
opls_166-39    C    0.40479998    0.21346000    0.47630805    0.15950000
opls_166-40    C    0.38103009    0.19055994    0.45120085    0.15950000
opls_145-41    C    0.40354005    0.16740008    0.44052890    -0.23570000
opls_700-42    C    0.97582985    0.69054004    0.47016898    0.02720000
opls_700-43    C    0.95149989    0.66664996    0.45436949    0.02730000
opls_145-44    C    0.95146016    0.71374008    0.48732980    -0.23570000
opls_166-45    C    0.90479998    0.71346000    0.47630805    0.15960000
opls_166-46    C    0.88103009    0.69055994    0.45120085    0.15950000
opls_145-47    C    0.90354005    0.66740008    0.44052890    -0.23570000
opls_700-48    C    0.52420011    0.85686994    0.48312049    0.02750000
opls_700-49    C    0.47545992    0.85700003    0.45634880    0.02810000
opls_145-50    C    0.45243987    0.88117000    0.43566954    -0.23570000
opls_166-51    C    0.47660015    0.90412000    0.45048084    0.15950000
opls_166-52    C    0.52365990    0.90397001    0.48496862    0.16160000
opls_145-53    C    0.54752996    0.88091996    0.50198951    -0.23570000
opls_700-54    C    0.02420011    0.35686994    0.48312049    0.02750000
opls_166-55    C    0.02365990    0.40397001    0.48496862    0.16160000
opls_145-56    C    0.04752996    0.38091996    0.50198951    -0.23570000
opls_700-57    C    0.52420011    0.14313006    0.48312049    0.02750000
opls_700-58    C    0.47545992    0.14299997    0.45634880    0.02810000
opls_145-59    C    0.45243987    0.11883000    0.43566954    -0.23570000
opls_166-60    C    0.47660015    0.09588000    0.45048084    0.15950000
opls_166-61    C    0.52365990    0.09602999    0.48496862    0.16160000
opls_145-62    C    0.54752996    0.11908004    0.50198951    -0.23570000
opls_700-63    C    0.02420011    0.64313006    0.48312049    0.02750000
opls_166-64    C    0.02365990    0.59602999    0.48496862    0.16160000
opls_145-65    C    0.04752996    0.61908004    0.50198951    -0.23570000
opls_700-66    C    0.97545992    0.35700003    0.45634880    0.02810000
opls_145-67    C    0.95243987    0.38117000    0.43566954    -0.23570000
opls_166-68    C    0.97660015    0.40412000    0.45048084    0.15950000
opls_700-69    C    0.97545992    0.64299997    0.45634880    0.02810000
opls_145-70    C    0.95243987    0.61883000    0.43566954    -0.23570000
opls_166-71    C    0.97660015    0.59588000    0.45048084    0.15950000
opls_145-72    C    0.79006990    0.73608995    0.47002032    -0.27430000
opls_145-73    C    0.29006990    0.23608995    0.47002032    -0.27430000
opls_145-74    C    0.79006990    0.26391005    0.47002032    -0.27430000
opls_145-75    C    0.29006990    0.76391005    0.47002032    -0.27430000
opls_145-76    C    0.74836014    0.72279007    0.44270935    -0.12650000
opls_145-77    C    0.24836014    0.22279007    0.44270935    -0.12650000
opls_145-78    C    0.74836014    0.27720993    0.44270935    -0.12650000
opls_145-79    C    0.24836014    0.77720993    0.44270935    -0.12650000
opls_145-80    C    0.75035016    0.77642997    0.49994899    -0.12650000
opls_145-81    C    0.25035016    0.27642997    0.49994899    -0.12650000
opls_145-82    C    0.75035016    0.22357003    0.49994899    -0.12650000
opls_145-83    C    0.25035016    0.72357003    0.49994899    -0.12650000
opls_145-84    C    0.79077000    0.76300995    0.49927853    -0.12650000
opls_145-85    C    0.29077000    0.26300995    0.49927853    -0.12650000
opls_145-86    C    0.79077000    0.23699005    0.49927853    -0.12650000
opls_145-87    C    0.29077000    0.73699005    0.49927853    -0.12650000
opls_145-88    C    0.70793006    0.73621009    0.44338855    -0.12650000
opls_145-89    C    0.20793006    0.23621009    0.44338855    -0.12650000
opls_145-90    C    0.70793006    0.26378991    0.44338855    -0.12650000
opls_145-91    C    0.20793006    0.76378991    0.44338855    -0.12650000
opls_145-92    C    0.70863021    0.76313009    0.47260012    -0.27430000
opls_145-93    C    0.20863021    0.26313009    0.47260012    -0.27430000
opls_145-94    C    0.70863021    0.23686991    0.47260012    -0.27430000
opls_145-95    C    0.20863021    0.73686991    0.47260012    -0.27430000
opls_145-96    C    0.50073002    0.02733993    0.46393955    -0.29280000
opls_145-97    C    0.00073002    0.52733993    0.46393955    -0.29260000
opls_145-98    C    0.50073002    0.97266007    0.46393955    -0.29280000
opls_145-99    C    0.00073002    0.47266007    0.46393955    -0.29260000
opls_716-100    C    0.54166008    0.01335000    0.48890975    0.12600000
opls_716-101    C    0.04165014    0.51335000    0.48890975    0.12600000
opls_716-102    C    0.54166008    0.98665000    0.48890975    0.12600000
opls_716-103    C    0.04165014    0.48665000    0.48890975    0.12600000
opls_145-104    C    0.45951984    0.98650001    0.43825809    -0.07840000
opls_145-105    C    0.95951984    0.48650001    0.43825809    -0.07840000
opls_145-106    C    0.45951984    0.01349999    0.43825809    -0.07840000
opls_145-107    C    0.95951984    0.51349999    0.43825809    -0.07840000
opls_167-108    O    0.62165992    0.76601004    0.45432868    -0.37590000
opls_167-109    O    0.12165992    0.26601004    0.45432868    -0.37580000
opls_167-110    O    0.62165992    0.23398996    0.45432868    -0.37590000
opls_167-111    O    0.12165992    0.73398996    0.45432868    -0.37590000
opls_167-112    O    0.66250988    0.80475992    0.49853811    -0.37560000
opls_167-113    O    0.16250988    0.30475992    0.49853811    -0.37550000
opls_167-114    O    0.66250988    0.19524008    0.49853811    -0.37560000
opls_167-115    O    0.16250988    0.69524008    0.49853811    -0.37550000
opls_167-116    O    0.33654010    0.80545991    0.44372961    -0.37660000
opls_167-117    O    0.83654010    0.30545991    0.44372961    -0.37660000
opls_167-118    O    0.33654010    0.19454009    0.44372961    -0.37650000
opls_167-119    O    0.83654010    0.69454009    0.44372961    -0.37660000
opls_167-120    O    0.37696992    0.76657994    0.48802066    -0.37560000
opls_167-121    O    0.87696992    0.26657994    0.48802066    -0.37560000
opls_167-122    O    0.37696992    0.23342006    0.48802066    -0.37560000
opls_167-123    O    0.87696992    0.73342006    0.48802066    -0.37560000
opls_167-124    O    0.54028016    0.92801008    0.49585919    -0.37600000
opls_167-125    O    0.04028016    0.42801008    0.49585919    -0.37620000
opls_167-126    O    0.54028016    0.07198992    0.49585919    -0.37590000
opls_167-127    O    0.04028016    0.57198992    0.49585919    -0.37620000
opls_167-128    O    0.46040011    0.92829991    0.43704835    -0.37570000
opls_167-129    O    0.96040011    0.42829991    0.43704835    -0.37590000
opls_167-130    O    0.46040011    0.07170009    0.43704835    -0.37580000
opls_167-131    O    0.96040011    0.57170009    0.43704835    -0.37590000
MOF2_B_2-132    B    0.66602987    0.77734002    0.47497879    0.52350000
MOF2_B_2-133    B    0.16602987    0.27734002    0.47497879    0.52350000
MOF2_B_2-134    B    0.66602987    0.22265998    0.47497879    0.52360000
MOF2_B_2-135    B    0.16602987    0.72265998    0.47497879    0.52350000
MOF2_B_2-136    B    0.33272987    0.77805991    0.46745800    0.52350000
MOF2_B_2-137    B    0.83272987    0.27805991    0.46745800    0.52370000
MOF2_B_2-138    B    0.33272987    0.22194009    0.46745800    0.52350000
MOF2_B_2-139    B    0.83272987    0.72194009    0.46745800    0.52350000
MOF2_B_2-140    B    0.50049993    0.94420004    0.46549910    0.52350000
MOF2_B_2-141    B    0.00048999    0.44420004    0.46549910    0.52350000
MOF2_B_2-142    B    0.50049993    0.05579996    0.46549910    0.52350000
MOF2_B_2-143    B    0.00048999    0.55579996    0.46549910    0.52360000
opls_146-144    H    0.61616001    0.84785994    0.51627902    0.22430000
opls_146-145    H    0.53228996    0.76844997    0.43106087    0.22380000
opls_146-146    H    0.46629013    0.76862004    0.51104070    0.22380000
opls_146-147    H    0.38348004    0.84840995    0.42549898    0.22390000
opls_146-148    H    0.41805014    0.88312994    0.41020088    0.22390000
opls_146-149    H    0.58195000    0.88272992    0.52731825    0.22400000
opls_146-150    H    0.11616001    0.34785994    0.51627902    0.22430000
opls_146-151    H    0.03228002    0.26844997    0.43106087    0.22380000
opls_146-152    H    0.08195000    0.38272992    0.52731825    0.22400000
opls_146-153    H    0.61616001    0.15214006    0.51627902    0.22430000
opls_146-154    H    0.53228996    0.23155003    0.43106087    0.22390000
opls_146-155    H    0.46629013    0.23137996    0.51104070    0.22390000
opls_146-156    H    0.38348004    0.15159005    0.42549898    0.22390000
opls_146-157    H    0.41805014    0.11687006    0.41020088    0.22400000
opls_146-158    H    0.58195000    0.11727008    0.52731825    0.22400000
opls_146-159    H    0.11616001    0.65214006    0.51627902    0.22440000
opls_146-160    H    0.03228002    0.73155003    0.43106087    0.22380000
opls_146-161    H    0.08195000    0.61727008    0.52731825    0.22400000
opls_146-162    H    0.96629013    0.26862004    0.51104070    0.22380000
opls_146-163    H    0.88348004    0.34840995    0.42549898    0.22390000
opls_146-164    H    0.91805014    0.38312994    0.41020088    0.22390000
opls_146-165    H    0.96629013    0.73137996    0.51104070    0.22390000
opls_146-166    H    0.88348004    0.65159005    0.42549898    0.22390000
opls_146-167    H    0.91805014    0.61687006    0.41020088    0.22390000
opls_146-168    H    0.74708016    0.70326007    0.42193972    0.22360000
opls_146-169    H    0.24708016    0.20326007    0.42193972    0.22360000
opls_146-170    H    0.74708016    0.29673993    0.42193972    0.22360000
opls_146-171    H    0.24708016    0.79673993    0.42193972    0.22360000
opls_146-172    H    0.82060993    0.77306010    0.51924069    0.22370000
opls_146-173    H    0.32060993    0.27306010    0.51924069    0.22360000
opls_146-174    H    0.82060993    0.22693990    0.51924069    0.22360000
opls_146-175    H    0.32060993    0.72693990    0.51924069    0.22360000
opls_146-176    H    0.67807014    0.72618003    0.42340016    0.22360000
opls_146-177    H    0.17807014    0.22618003    0.42340016    0.22370000
opls_146-178    H    0.67807014    0.27381997    0.42340016    0.22360000
opls_146-179    H    0.17807014    0.77381997    0.42340016    0.22360000
opls_146-180    H    0.75164015    0.79595997    0.52064865    0.22360000
opls_146-181    H    0.25164015    0.29595997    0.52064865    0.22360000
opls_146-182    H    0.75164015    0.20404003    0.52064865    0.22360000
opls_146-183    H    0.25164015    0.70404003    0.52064865    0.22370000
opls_146-184    H    0.42928006    0.02297009    0.42186976    0.22360000
opls_146-185    H    0.92928006    0.52297009    0.42186976    0.22360000
opls_146-186    H    0.42928006    0.97702991    0.42186976    0.22360000
opls_146-187    H    0.92928006    0.47702991    0.42186976    0.22370000
opls_750-188    N    0.58394017    0.02276998    0.51520045    -0.38670000
opls_750-189    N    0.08394017    0.52276998    0.51520045    -0.38660000
opls_750-190    N    0.58394017    0.97723002    0.51520045    -0.38670000
opls_750-191    N    0.08394017    0.47723002    0.51520045    -0.38660000
opls_202-192    S    0.62447002    0.00000000    0.54187886    0.39940000
opls_202-193    S    0.12447002    0.50000000    0.54187886    0.39940000
