#======================================================================
# Crystal Data Generated By AuToFF
#----------------------------------------------------------------------

data_AuToFF_phase_1

_cell_length_a                         36.2000
_cell_length_b                         36.2000
_cell_length_c                         3.4000
_cell_angle_alpha                      90.00
_cell_angle_beta                       90.00
_cell_angle_gamma                      120.00
_symmetry_space_group_name_H-M_alt     'P 1'
_symmetry_space_group_IT_number        1

loop_
_space_group_symop_operation_xyz
   'x, y, z'

loop_
   _atom_site_label
   _atom_site_type_symbol
   _atom_site_fract_x
   _atom_site_fract_y
   _atom_site_fract_z
   _atom_site_charge
opls_750-0    N    0.45505003    0.56772988    0.59212059    -0.32510000
opls_750-1    N    0.43226997    0.88732005    0.59212059    -0.32500000
opls_750-2    N    0.11268001    0.54495007    0.59212059    -0.32510000
opls_750-3    N    0.54494997    0.43227012    0.40787941    -0.32510000
opls_750-4    N    0.56773003    0.11267995    0.40787941    -0.32510000
opls_750-5    N    0.88731999    0.45504993    0.40787941    -0.32500000
opls_167-6    O    0.51620000    0.56640995    0.96139118    -0.47200000
opls_167-7    O    0.43359002    0.94978998    0.96139118    -0.47210000
opls_167-8    O    0.05020998    0.48380006    0.96139118    -0.47210000
opls_167-9    O    0.48380000    0.43359005    0.03860882    -0.47210000
opls_167-10    O    0.56640998    0.05021002    0.03860882    -0.47210000
opls_167-11    O    0.94979002    0.51619994    0.03860882    -0.47210000
opls_145-12    C    0.46816997    0.48351011    0.22835882    -0.26760000
opls_145-13    C    0.47551012    0.51764012    0.45190000    0.00150000
opls_142-14    C    0.44950995    0.53602985    0.39874118    0.07910000
opls_166-15    C    0.50787003    0.53344006    0.73169118    0.21980000
opls_145-16    C    0.42851994    0.58611004    0.53820882    0.17230000
opls_145-17    C    0.43784004    0.61978008    0.79269118    -0.23690000
opls_145-18    C    0.41288988    0.63763998    0.76260000    -0.22980000
opls_145-19    C    0.37156996    0.58890014    0.25917941    -0.23930000
opls_145-20    C    0.39470005    0.57031999    0.27747941    -0.24030000
opls_700-21    C    0.38020013    0.62324004    0.49420882    0.06760000
opls_700-22    C    0.35695006    0.64564984    0.47647941    0.07560000
opls_145-23    C    0.37800998    0.68942990    0.47705000    -0.15270000
opls_145-24    C    0.51648996    0.98466003    0.22835882    -0.26760000
opls_145-25    C    0.48235987    0.95787002    0.45190000    0.00150000
opls_142-26    C    0.46397015    0.91348008    0.39874118    0.07910000
opls_166-27    C    0.46656007    0.97443008    0.73169118    0.21980000
opls_145-28    C    0.41389001    0.84240985    0.53820882    0.17230000
opls_145-29    C    0.38022007    0.81806003    0.79269118    -0.23690000
opls_145-30    C    0.36236007    0.77524998    0.76260000    -0.22980000
opls_145-31    C    0.41109994    0.78267005    0.25917941    -0.23930000
opls_145-32    C    0.42968002    0.82437994    0.27747941    -0.24030000
opls_700-33    C    0.37676016    0.75696010    0.49420882    0.06760000
opls_700-34    C    0.35434999    0.71129999    0.47647941    0.07560000
opls_145-35    C    0.31057018    0.68858014    0.47705000    -0.15270000
opls_145-36    C    0.01534007    0.53182986    0.22835882    -0.26760000
opls_145-37    C    0.04213001    0.52448986    0.45190000    0.00150000
opls_142-38    C    0.08651990    0.55049008    0.39874118    0.07910000
opls_166-39    C    0.02556990    0.49212985    0.73169118    0.21980000
opls_145-40    C    0.15759005    0.57148011    0.53820882    0.17230000
opls_145-41    C    0.18193989    0.56215989    0.79269118    -0.23690000
opls_145-42    C    0.22475004    0.58711003    0.76260000    -0.22980000
opls_145-43    C    0.21732998    0.62843013    0.25917941    -0.23920000
opls_145-44    C    0.17561993    0.60530008    0.27747941    -0.24030000
opls_700-45    C    0.24303999    0.61979986    0.49420882    0.06760000
opls_700-46    C    0.28870006    0.64304985    0.47647941    0.07560000
opls_145-47    C    0.31141984    0.62198996    0.47705000    -0.15270000
opls_145-48    C    0.53183003    0.51648989    0.77164118    -0.26760000
opls_145-49    C    0.52448988    0.48235988    0.54810000    0.00160000
opls_142-50    C    0.55048989    0.46396983    0.60125882    0.07910000
opls_166-51    C    0.49212997    0.46655994    0.26830882    0.21980000
opls_145-52    C    0.57148006    0.41388996    0.46179118    0.17240000
opls_145-53    C    0.56215996    0.38021992    0.20730882    -0.23690000
opls_145-54    C    0.58711012    0.36236002    0.23740000    -0.22980000
opls_145-55    C    0.62843004    0.41109986    0.74082059    -0.23920000
opls_145-56    C    0.60529995    0.42968001    0.72252059    -0.24030000
opls_700-57    C    0.61979987    0.37675996    0.50579118    0.06760000
opls_700-58    C    0.64304978    0.35434984    0.52352059    0.07560000
opls_145-59    C    0.62199002    0.31057010    0.52295000    -0.15270000
opls_145-60    C    0.48351004    0.01533997    0.77164118    -0.26760000
opls_145-61    C    0.51764013    0.04212998    0.54810000    0.00150000
opls_142-62    C    0.53602985    0.08651992    0.60125882    0.07910000
opls_166-63    C    0.53343993    0.02556992    0.26830882    0.21980000
opls_145-64    C    0.58610999    0.15759015    0.46179118    0.17230000
opls_145-65    C    0.61977993    0.18193997    0.20730882    -0.23690000
opls_145-66    C    0.63763993    0.22475002    0.23740000    -0.22970000
opls_145-67    C    0.58890006    0.21732995    0.74082059    -0.23920000
opls_145-68    C    0.57031998    0.17562006    0.72252059    -0.24020000
opls_700-69    C    0.62323984    0.24303990    0.50579118    0.06760000
opls_700-70    C    0.64565001    0.28870001    0.52352059    0.07560000
opls_145-71    C    0.68942982    0.31141986    0.52295000    -0.15270000
opls_145-72    C    0.98466021    0.46817014    0.77164118    -0.26750000
opls_145-73    C    0.95786999    0.47551014    0.54810000    0.00150000
opls_142-74    C    0.91347982    0.44950992    0.60125882    0.07910000
opls_166-75    C    0.97443010    0.50787015    0.26830882    0.21980000
opls_145-76    C    0.84240995    0.42851989    0.46179118    0.17230000
opls_145-77    C    0.81806011    0.43784011    0.20730882    -0.23680000
opls_145-78    C    0.77524996    0.41288997    0.23740000    -0.22980000
opls_145-79    C    0.78267002    0.37156987    0.74082059    -0.23930000
opls_145-80    C    0.82438007    0.39469992    0.72252059    -0.24030000
opls_700-81    C    0.75696001    0.38020014    0.50579118    0.06760000
opls_700-82    C    0.71129994    0.35695015    0.52352059    0.07560000
opls_145-83    C    0.68857988    0.37801004    0.52295000    -0.15270000
opls_146-84    H    0.44161992    0.46801001    0.05272059    0.19460000
opls_144-85    H    0.42529007    0.52038015    0.20445000    0.09540000
opls_168-86    H    0.49951009    0.57414007    0.91347941    0.28500000
opls_146-87    H    0.46531011    0.63355005    0.95705000    0.19450000
opls_146-88    H    0.42283008    0.66540989    0.91557059    0.19450000
opls_146-89    H    0.34432995    0.57502013    0.09132059    0.19450000
opls_146-90    H    0.38358990    0.54264003    0.12364118    0.19460000
opls_146-91    H    0.41060979    0.70676986    0.47620000    0.19450000
opls_146-92    H    0.53199008    0.97360999    0.05272059    0.19450000
opls_144-93    H    0.47961996    0.90491009    0.20445000    0.09540000
opls_168-94    H    0.42586013    0.92536998    0.91347941    0.28510000
opls_146-95    H    0.36644996    0.83176013    0.95705000    0.19450000
opls_146-96    H    0.33459014    0.75742007    0.91557059    0.19450000
opls_146-97    H    0.42498015    0.76930009    0.09132059    0.19450000
opls_146-98    H    0.45736003    0.84094989    0.12364118    0.19460000
opls_146-99    H    0.29322997    0.70384005    0.47620000    0.19450000
opls_146-100    H    0.02639000    0.55838000    0.05272059    0.19450000
opls_144-101    H    0.09509012    0.57471008    0.20445000    0.09540000
opls_168-102    H    0.07463006    0.50048995    0.91347941    0.28520000
opls_146-103    H    0.16825001    0.53470003    0.95705000    0.19450000
opls_146-104    H    0.24258005    0.57717004    0.91557059    0.19460000
opls_146-105    H    0.23070000    0.65568011    0.09132059    0.19460000
opls_146-106    H    0.15905007    0.61641008    0.12364118    0.19460000
opls_146-107    H    0.29615996    0.58939009    0.47620000    0.19450000
opls_146-108    H    0.55838008    0.53198999    0.94729118    0.19450000
opls_144-109    H    0.57470993    0.47961985    0.79555000    0.09540000
opls_168-110    H    0.50048991    0.42585993    0.08652059    0.28510000
opls_146-111    H    0.53470011    0.36644995    0.04295000    0.19450000
opls_146-112    H    0.57716992    0.33459011    0.08442941    0.19450000
opls_146-113    H    0.65567999    0.42497987    0.90867941    0.19450000
opls_146-114    H    0.61641010    0.45735997    0.87635882    0.19470000
opls_146-115    H    0.58939021    0.29323014    0.52380000    0.19450000
opls_146-116    H    0.46800992    0.02639001    0.94729118    0.19450000
opls_144-117    H    0.52038004    0.09508991    0.79555000    0.09550000
opls_168-118    H    0.57413987    0.07463002    0.08652059    0.28500000
opls_146-119    H    0.63355017    0.16825007    0.04295000    0.19450000
opls_146-120    H    0.66540986    0.24257993    0.08442941    0.19450000
opls_146-121    H    0.57501985    0.23069991    0.90867941    0.19450000
opls_146-122    H    0.54263997    0.15905011    0.87635882    0.19470000
opls_146-123    H    0.70677003    0.29615995    0.52380000    0.19450000
opls_146-124    H    0.97361000    0.44162000    0.94729118    0.19450000
opls_144-125    H    0.90490988    0.42528992    0.79555000    0.09540000
opls_168-126    H    0.92536994    0.49951005    0.08652059    0.28500000
opls_146-127    H    0.83175990    0.46530986    0.04295000    0.19460000
opls_146-128    H    0.75741995    0.42282996    0.08442941    0.19450000
opls_146-129    H    0.76930013    0.34433010    0.90867941    0.19460000
opls_146-130    H    0.84094993    0.38358992    0.87635882    0.19460000
opls_146-131    H    0.70384004    0.41060991    0.52380000    0.19450000
