#======================================================================
# Crystal Data Generated By AuToFF
#----------------------------------------------------------------------

data_AuToFF_phase_1

_cell_length_a                         37.3100
_cell_length_b                         37.3100
_cell_length_c                         3.5400
_cell_angle_alpha                      90.00
_cell_angle_beta                       90.00
_cell_angle_gamma                      120.00
_symmetry_space_group_name_H-M_alt     'P 1'
_symmetry_space_group_IT_number        1

loop_
_space_group_symop_operation_xyz
   'x, y, z'

loop_
   _atom_site_label
   _atom_site_type_symbol
   _atom_site_fract_x
   _atom_site_fract_y
   _atom_site_fract_z
   _atom_site_charge
opls_145-0    C    0.97204002    0.51350003    0.57707910    -0.14880000
opls_700-1    C    0.95705005    0.47112986    0.51461864    0.00380000
opls_729-2    C    0.98560994    0.45779989    0.43698023    0.07610000
opls_142-3    C    0.91200010    0.44134998    0.52968927    0.07630000
opls_145-4    C    0.81798993    0.44764001    0.63466102    -0.15540000
opls_145-5    C    0.84178003    0.42821994    0.63759040    0.20700000
opls_145-6    C    0.82170997    0.38485012    0.67096893    -0.15450000
opls_523-7    C    0.77855990    0.36152987    0.68870056    -0.11680000
opls_700-8    C    0.75459987    0.38097997    0.67685028    0.00070000
opls_523-9    C    0.77485984    0.42436991    0.65268079    -0.11650000
opls_531-10    C    0.70880993    0.35616985    0.68551130    0.36560000
opls_145-11    C    0.48649990    0.45853988    0.57707910    -0.14880000
opls_700-12    C    0.52886994    0.48591999    0.51461864    0.00380000
opls_729-13    C    0.54220001    0.52780984    0.43698023    0.07610000
opls_142-14    C    0.55865003    0.47064984    0.52968927    0.07630000
opls_145-15    C    0.55235993    0.37034998    0.63466102    -0.15540000
opls_145-16    C    0.57178005    0.41356010    0.63759040    0.20700000
opls_145-17    C    0.61514987    0.43685992    0.67096893    -0.15450000
opls_523-18    C    0.63847001    0.41703008    0.68870056    -0.11680000
opls_700-19    C    0.61902015    0.37362003    0.67685028    0.00070000
opls_523-20    C    0.57562994    0.35049012    0.65268079    -0.11650000
opls_531-21    C    0.64382996    0.35263983    0.68551130    0.36560000
opls_145-22    C    0.54146008    0.02796009    0.57707910    -0.14880000
opls_700-23    C    0.51407985    0.04294984    0.51461864    0.00380000
opls_729-24    C    0.47218989    0.01438996    0.43698023    0.07610000
opls_142-25    C    0.52934998    0.08799987    0.52968927    0.07630000
opls_145-26    C    0.62964987    0.18201001    0.63466102    -0.15540000
opls_145-27    C    0.58643992    0.15821996    0.63759040    0.20700000
opls_145-28    C    0.56313989    0.17828996    0.67096893    -0.15450000
opls_523-29    C    0.58297009    0.22144004    0.68870056    -0.11680000
opls_700-30    C    0.62637998    0.24540000    0.67685028    0.00070000
opls_523-31    C    0.64950995    0.22513997    0.65268079    -0.11650000
opls_531-32    C    0.64735995    0.29119002    0.68551130    0.36560000
opls_145-33    C    0.02795998    0.48649997    0.42292090    -0.14880000
opls_700-34    C    0.04294979    0.52886983    0.48538136    0.00380000
opls_729-35    C    0.01439006    0.54220011    0.56301977    0.07610000
opls_142-36    C    0.08799990    0.55865002    0.47031073    0.07630000
opls_145-37    C    0.18201007    0.55235999    0.36533898    -0.15540000
opls_145-38    C    0.15821997    0.57178006    0.36240960    0.20700000
opls_145-39    C    0.17829003    0.61514988    0.32903107    -0.15450000
opls_523-40    C    0.22143995    0.63846982    0.31129944    -0.11680000
opls_700-41    C    0.24540013    0.61902003    0.32314972    0.00070000
opls_523-42    C    0.22514016    0.57563009    0.34731921    -0.11650000
opls_531-43    C    0.29118991    0.64382984    0.31448870    0.36560000
opls_145-44    C    0.51349994    0.54145981    0.42292090    -0.14880000
opls_700-45    C    0.47113006    0.51408001    0.48538136    0.00380000
opls_729-46    C    0.45779983    0.47218985    0.56301977    0.07610000
opls_142-47    C    0.44134981    0.52934985    0.47031073    0.07630000
opls_145-48    C    0.44764007    0.62965002    0.36533898    -0.15540000
opls_145-49    C    0.42821995    0.58643990    0.36240960    0.20700000
opls_145-50    C    0.38485013    0.56314008    0.32903107    -0.15450000
opls_523-51    C    0.36152999    0.58296992    0.31129944    -0.11680000
opls_700-52    C    0.38097985    0.62637997    0.32314972    0.00070000
opls_523-53    C    0.42437006    0.64950988    0.34731921    -0.11650000
opls_531-54    C    0.35616988    0.64735986    0.31448870    0.36560000
opls_145-55    C    0.45853992    0.97203991    0.42292090    -0.14880000
opls_700-56    C    0.48591999    0.95704985    0.48538136    0.00380000
opls_729-57    C    0.52781011    0.98561004    0.56301977    0.07610000
opls_142-58    C    0.47064987    0.91199982    0.47031073    0.07630000
opls_145-59    C    0.37035013    0.81798999    0.36533898    -0.15530000
opls_145-60    C    0.41356008    0.84178004    0.36240960    0.20710000
opls_145-61    C    0.43686011    0.82171004    0.32903107    -0.15450000
opls_523-62    C    0.41702991    0.77855996    0.31129944    -0.11680000
opls_700-63    C    0.37362002    0.75460000    0.32314972    0.00070000
opls_523-64    C    0.35049005    0.77486003    0.34731921    -0.11650000
opls_531-65    C    0.35264005    0.70880998    0.31448870    0.36560000
opls_750-66    N    0.88600015    0.45373012    0.61294068    -0.31260000
opls_520-67    N    0.68581989    0.37514983    0.68520056    -0.41170000
opls_750-68    N    0.54627003    0.43226990    0.61294068    -0.31260000
opls_520-69    N    0.62484994    0.31067013    0.68520056    -0.41160000
opls_750-70    N    0.56773009    0.11399998    0.61294068    -0.31260000
opls_520-71    N    0.68932990    0.31418004    0.68520056    -0.41170000
opls_750-72    N    0.11399985    0.54626988    0.38705932    -0.31260000
opls_520-73    N    0.31417996    0.62484986    0.31479944    -0.41160000
opls_750-74    N    0.45372997    0.56773010    0.38705932    -0.31260000
opls_520-75    N    0.37515006    0.68932987    0.31479944    -0.41170000
opls_750-76    N    0.43226991    0.88600002    0.38705932    -0.31260000
opls_520-77    N    0.31067010    0.68581996    0.31479944    -0.41160000
opls_730-78    Br    0.96893012    0.40075008    0.35133898    -0.05540000
opls_730-79    Br    0.59925006    0.56818009    0.35133898    -0.05540000
opls_730-80    Br    0.43181998    0.03107014    0.35133898    -0.05540000
opls_730-81    Br    0.03106988    0.59924992    0.64866102    -0.05540000
opls_730-82    Br    0.40074994    0.43181991    0.64866102    -0.05540000
opls_730-83    Br    0.56818002    0.96892986    0.64866102    -0.05540000
opls_146-84    H    0.95079978    0.52459982    0.63694068    0.12590000
opls_144-85    H    0.90085007    0.40933992    0.46038983    0.10790000
opls_146-86    H    0.83300002    0.48100996    0.61353955    0.12780000
opls_146-87    H    0.83891985    0.36868988    0.68818079    0.12960000
opls_526-88    H    0.76401015    0.32821007    0.71216102    0.12550000
opls_526-89    H    0.75744009    0.44044008    0.64466949    0.12540000
opls_146-90    H    0.47539987    0.42619991    0.63694068    0.12590000
opls_144-91    H    0.59066010    0.49150997    0.46038983    0.10790000
opls_146-92    H    0.51898986    0.35198990    0.61353955    0.12780000
opls_146-93    H    0.63131006    0.47022987    0.68818079    0.12960000
opls_526-94    H    0.67179007    0.43579992    0.71216102    0.12550000
opls_526-95    H    0.55956008    0.31700009    0.64466949    0.12540000
opls_146-96    H    0.57379993    0.04919996    0.63694068    0.12590000
opls_144-97    H    0.50849009    0.09915011    0.46038983    0.10790000
opls_146-98    H    0.64801012    0.16700014    0.61353955    0.12780000
opls_146-99    H    0.52976994    0.16107994    0.68818079    0.12960000
opls_526-100    H    0.56420004    0.23599001    0.71216102    0.12550000
opls_526-101    H    0.68299998    0.24256014    0.64466949    0.12540000
opls_146-102    H    0.04919980    0.47539987    0.36305932    0.12590000
opls_144-103    H    0.09914993    0.59066008    0.53961017    0.10790000
opls_146-104    H    0.16699998    0.51899004    0.38646045    0.12790000
opls_146-105    H    0.16107999    0.63130981    0.31181921    0.12960000
opls_526-106    H    0.23598985    0.67178993    0.28783898    0.12550000
opls_526-107    H    0.24255991    0.55955992    0.35533051    0.12540000
opls_146-108    H    0.52460013    0.57380009    0.36305932    0.12590000
opls_144-109    H    0.40933990    0.50849003    0.53961017    0.10790000
opls_146-110    H    0.48101014    0.64801010    0.38646045    0.12780000
opls_146-111    H    0.36868979    0.52976982    0.31181921    0.12960000
opls_526-112    H    0.32820993    0.56420008    0.28783898    0.12550000
opls_526-113    H    0.44043992    0.68299991    0.35533051    0.12540000
opls_146-114    H    0.42620007    0.95080004    0.36305932    0.12590000
opls_144-115    H    0.49150991    0.90084989    0.53961017    0.10790000
opls_146-116    H    0.35198988    0.83299986    0.38646045    0.12780000
opls_146-117    H    0.47023006    0.83892006    0.31181921    0.12960000
opls_526-118    H    0.43579996    0.76400999    0.28783898    0.12550000
opls_526-119    H    0.31700002    0.75743986    0.35533051    0.12540000
