#======================================================================
# Crystal Data Generated By AuToFF
#----------------------------------------------------------------------

data_AuToFF_phase_1

_cell_length_a                         25.8720
_cell_length_b                         18.6250
_cell_length_c                         3.4390
_cell_angle_alpha                      90.00
_cell_angle_beta                       90.00
_cell_angle_gamma                      90.00
_symmetry_space_group_name_H-M_alt     'P 1'
_symmetry_space_group_IT_number        1

loop_
_space_group_symop_operation_xyz
   'x, y, z'

loop_
   _atom_site_label
   _atom_site_type_symbol
   _atom_site_fract_x
   _atom_site_fract_y
   _atom_site_fract_z
   _atom_site_charge
opls_520-0    N    0.13345006    0.50000000    0.50000000    -0.19670000
opls_520-1    N    0.63345006    0.00000000    0.50000000    -0.19660000
opls_520-2    N    0.86654994    0.50000000    0.50000000    -0.19670000
opls_520-3    N    0.36654994    0.00000000    0.50000000    -0.19670000
opls_700-4    C    0.02809988    0.50000000    0.50000000    0.08090000
opls_700-5    C    0.52809988    0.00000000    0.50000000    0.08080000
opls_700-6    C    0.97190012    0.50000000    0.50000000    0.08090000
opls_700-7    C    0.47190012    0.00000000    0.50000000    0.08080000
opls_521-8    C    0.10825989    0.56291973    0.50000000    0.27370000
opls_522-9    C    0.05556006    0.56459007    0.50000000    -0.17440000
opls_142-10    C    0.13638992    0.62873020    0.50000000    -0.12400000
opls_142-11    C    0.18729012    0.62696000    0.50000000    -0.09760000
opls_145-12    C    0.19667015    0.76030980    0.50000000    -0.13030000
opls_145-13    C    0.27138992    0.68107973    0.50000000    -0.09550000
opls_700-14    C    0.21816017    0.69092993    0.50000000    0.14330000
opls_521-15    C    0.60825989    0.06292027    0.50000000    0.27370000
opls_522-16    C    0.55556006    0.06459007    0.50000000    -0.17440000
opls_142-17    C    0.63638992    0.12873020    0.50000000    -0.12400000
opls_142-18    C    0.68729012    0.12696000    0.50000000    -0.09760000
opls_145-19    C    0.69667015    0.26030980    0.50000000    -0.13030000
opls_145-20    C    0.77138992    0.18108027    0.50000000    -0.09550000
opls_700-21    C    0.71816017    0.19092993    0.50000000    0.14330000
opls_521-22    C    0.89174011    0.43708027    0.50000000    0.27370000
opls_522-23    C    0.94443994    0.43540993    0.50000000    -0.17440000
opls_142-24    C    0.86361008    0.37126980    0.50000000    -0.12400000
opls_142-25    C    0.81270988    0.37304000    0.50000000    -0.09760000
opls_145-26    C    0.80332985    0.23969020    0.50000000    -0.13030000
opls_145-27    C    0.72861008    0.31892027    0.50000000    -0.09550000
opls_700-28    C    0.78183983    0.30907007    0.50000000    0.14330000
opls_521-29    C    0.39174011    0.93708027    0.50000000    0.27380000
opls_522-30    C    0.44443994    0.93540993    0.50000000    -0.17440000
opls_142-31    C    0.36361008    0.87126980    0.50000000    -0.12400000
opls_142-32    C    0.31270988    0.87304000    0.50000000    -0.09750000
opls_145-33    C    0.30332985    0.73969020    0.50000000    -0.13030000
opls_145-34    C    0.22861008    0.81892027    0.50000000    -0.09540000
opls_700-35    C    0.28183983    0.80907007    0.50000000    0.14330000
opls_521-36    C    0.89174011    0.56291973    0.50000000    0.27370000
opls_522-37    C    0.94443994    0.56459007    0.50000000    -0.17440000
opls_142-38    C    0.86361008    0.62873020    0.50000000    -0.12400000
opls_142-39    C    0.81270988    0.62696000    0.50000000    -0.09760000
opls_145-40    C    0.80332985    0.76030980    0.50000000    -0.13030000
opls_145-41    C    0.72861008    0.68107973    0.50000000    -0.09540000
opls_700-42    C    0.78183983    0.69092993    0.50000000    0.14340000
opls_521-43    C    0.39174011    0.06292027    0.50000000    0.27390000
opls_522-44    C    0.44443994    0.06459007    0.50000000    -0.17440000
opls_142-45    C    0.36361008    0.12873020    0.50000000    -0.12400000
opls_142-46    C    0.31270988    0.12696000    0.50000000    -0.09750000
opls_145-47    C    0.30332985    0.26030980    0.50000000    -0.13030000
opls_145-48    C    0.22861008    0.18108027    0.50000000    -0.09550000
opls_700-49    C    0.28183983    0.19092993    0.50000000    0.14330000
opls_521-50    C    0.10825989    0.43708027    0.50000000    0.27380000
opls_522-51    C    0.05556006    0.43540993    0.50000000    -0.17440000
opls_142-52    C    0.13638992    0.37126980    0.50000000    -0.12400000
opls_142-53    C    0.18729012    0.37304000    0.50000000    -0.09760000
opls_145-54    C    0.19667015    0.23969020    0.50000000    -0.13030000
opls_145-55    C    0.27138992    0.31892027    0.50000000    -0.09550000
opls_700-56    C    0.21816017    0.30907007    0.50000000    0.14340000
opls_521-57    C    0.60825989    0.93708027    0.50000000    0.27370000
opls_522-58    C    0.55556006    0.93540993    0.50000000    -0.17440000
opls_142-59    C    0.63638992    0.87126980    0.50000000    -0.12400000
opls_142-60    C    0.68729012    0.87304000    0.50000000    -0.09750000
opls_145-61    C    0.69667015    0.73969020    0.50000000    -0.13020000
opls_145-62    C    0.77138992    0.81892027    0.50000000    -0.09550000
opls_700-63    C    0.71816017    0.80907007    0.50000000    0.14330000
opls_525-64    H    0.03391002    0.61790013    0.50000000    0.05250000
opls_144-65    H    0.11482993    0.68211007    0.50000000    0.05250000
opls_144-66    H    0.20836000    0.57320000    0.50000000    0.05250000
opls_146-67    H    0.15291010    0.76747007    0.50000000    0.05260000
opls_146-68    H    0.28818994    0.62449987    0.50000000    0.05250000
opls_525-69    H    0.53391002    0.11790013    0.50000000    0.05250000
opls_144-70    H    0.61482993    0.18211007    0.50000000    0.05250000
opls_144-71    H    0.70836000    0.07320000    0.50000000    0.05250000
opls_146-72    H    0.65291010    0.26747007    0.50000000    0.05250000
opls_146-73    H    0.78852002    0.12468993    0.50000000    0.05250000
opls_525-74    H    0.96608998    0.38209987    0.50000000    0.05250000
opls_144-75    H    0.88517007    0.31788993    0.50000000    0.05260000
opls_144-76    H    0.79164000    0.42680000    0.50000000    0.05250000
opls_146-77    H    0.84705009    0.23209987    0.50000000    0.05250000
opls_146-78    H    0.71147998    0.37531007    0.50000000    0.05250000
opls_525-79    H    0.46559988    0.88172027    0.50000000    0.05250000
opls_144-80    H    0.38517007    0.81788993    0.50000000    0.05260000
opls_144-81    H    0.29164000    0.92680000    0.50000000    0.05250000
opls_146-82    H    0.34705009    0.73209987    0.50000000    0.05250000
opls_146-83    H    0.21147998    0.87531007    0.50000000    0.05250000
opls_525-84    H    0.96608998    0.61790013    0.50000000    0.05250000
opls_144-85    H    0.88517007    0.68211007    0.50000000    0.05250000
opls_144-86    H    0.79164000    0.57320000    0.50000000    0.05250000
opls_146-87    H    0.84708990    0.76747007    0.50000000    0.05260000
opls_146-88    H    0.71147998    0.62468993    0.50000000    0.05250000
opls_525-89    H    0.46608998    0.11790013    0.50000000    0.05250000
opls_144-90    H    0.38517007    0.18211007    0.50000000    0.05250000
opls_144-91    H    0.29164000    0.07320000    0.50000000    0.05250000
opls_146-92    H    0.34708990    0.26747007    0.50000000    0.05250000
opls_146-93    H    0.21147998    0.12468993    0.50000000    0.05250000
opls_525-94    H    0.03391002    0.38209987    0.50000000    0.05250000
opls_144-95    H    0.11482993    0.31788993    0.50000000    0.05250000
opls_144-96    H    0.20836000    0.42680000    0.50000000    0.05260000
opls_146-97    H    0.15294991    0.23209987    0.50000000    0.05250000
opls_146-98    H    0.28852002    0.37531007    0.50000000    0.05250000
opls_525-99    H    0.53440012    0.88172027    0.50000000    0.05250000
opls_144-100    H    0.61482993    0.81788993    0.50000000    0.05250000
opls_144-101    H    0.70836000    0.92680000    0.50000000    0.05250000
opls_146-102    H    0.65294991    0.73209987    0.50000000    0.05250000
opls_146-103    H    0.78852002    0.87531007    0.50000000    0.05250000
