#======================================================================
# Crystal Data Generated By AuToFF
#----------------------------------------------------------------------

data_AuToFF_phase_1

_cell_length_a                         29.6870
_cell_length_b                         29.6870
_cell_length_c                         3.4300
_cell_angle_alpha                      90.00
_cell_angle_beta                       90.00
_cell_angle_gamma                      120.00
_symmetry_space_group_name_H-M_alt     'P 1'
_symmetry_space_group_IT_number        1

loop_
_space_group_symop_operation_xyz
   'x, y, z'

loop_
   _atom_site_label
   _atom_site_type_symbol
   _atom_site_fract_x
   _atom_site_fract_y
   _atom_site_fract_z
   _atom_site_charge
opls_700-0    C    0.28207988    0.62813996    0.00000000    -0.07210000
opls_231-1    C    0.32059974    0.61540975    0.00000000    0.37290000
opls_142-2    C    0.41038005    0.64120001    0.00000000    -0.02250000
opls_166-3    C    0.51322994    0.55174973    0.00000000    0.28530000
opls_700-4    C    0.46196988    0.51321991    0.00000000    -0.01490000
opls_142-5    C    0.42344006    0.52595985    0.00000000    -0.02250000
opls_145-6    C    0.44924013    0.46197000    0.00000000    -0.16200000
opls_143-7    C    0.57721994    0.64152985    0.00000000    0.10810000
opls_700-8    C    0.37186000    0.65393995    0.00000000    -0.07210000
opls_231-9    C    0.38459008    0.70518987    0.00000000    0.37290000
opls_142-10    C    0.35879979    0.76917973    0.00000000    -0.02250000
opls_166-11    C    0.44824998    0.96147991    0.00000000    0.28530000
opls_700-12    C    0.48677994    0.94874969    0.00000000    -0.01490000
opls_142-13    C    0.47403993    0.89747994    0.00000000    -0.02250000
opls_145-14    C    0.53802975    0.98726979    0.00000000    -0.16200000
opls_143-15    C    0.35846987    0.93569003    0.00000000    0.10810000
opls_700-16    C    0.34606012    0.71792008    0.00000000    -0.07210000
opls_231-17    C    0.29480998    0.67939999    0.00000000    0.37290000
opls_142-18    C    0.23081997    0.58961987    0.00000000    -0.02250000
opls_166-19    C    0.03851989    0.48676997    0.00000000    0.28530000
opls_700-20    C    0.05124999    0.53803000    0.00000000    -0.01490000
opls_142-21    C    0.10251981    0.57655982    0.00000000    -0.02250000
opls_145-22    C    0.01272993    0.55075983    0.00000000    -0.16200000
opls_143-23    C    0.06431019    0.42278012    0.00000000    0.10810000
opls_700-24    C    0.71792012    0.37186004    0.00000000    -0.07210000
opls_231-25    C    0.67940006    0.38458986    0.00000000    0.37290000
opls_142-26    C    0.58961995    0.35879999    0.00000000    -0.02250000
opls_166-27    C    0.48676987    0.44824988    0.00000000    0.28530000
opls_700-28    C    0.53803012    0.48678009    0.00000000    -0.01490000
opls_142-29    C    0.57655975    0.47403976    0.00000000    -0.02250000
opls_145-30    C    0.55075987    0.53803000    0.00000000    -0.16200000
opls_143-31    C    0.42277987    0.35846976    0.00000000    0.10810000
opls_700-32    C    0.62814000    0.34606005    0.00000000    -0.07220000
opls_231-33    C    0.61540992    0.29481013    0.00000000    0.37290000
opls_142-34    C    0.64120002    0.23081989    0.00000000    -0.02250000
opls_166-35    C    0.55175002    0.03852009    0.00000000    0.28510000
opls_700-36    C    0.51321987    0.05124992    0.00000000    -0.01490000
opls_142-37    C    0.52596007    0.10252006    0.00000000    -0.02250000
opls_145-38    C    0.46197006    0.01272983    0.00000000    -0.16200000
opls_143-39    C    0.64153013    0.06430997    0.00000000    0.10810000
opls_700-40    C    0.65393988    0.28207992    0.00000000    -0.07210000
opls_231-41    C    0.70519002    0.32060001    0.00000000    0.37290000
opls_142-42    C    0.76918003    0.41038013    0.00000000    -0.02250000
opls_166-43    C    0.96148011    0.51323003    0.00000000    0.28520000
opls_700-44    C    0.94875001    0.46197000    0.00000000    -0.01490000
opls_142-45    C    0.89747999    0.42343979    0.00000000    -0.02250000
opls_145-46    C    0.98726987    0.44923978    0.00000000    -0.16220000
opls_143-47    C    0.93568981    0.57721988    0.00000000    0.10810000
opls_272-48    O    0.43585000    0.74372007    0.00000000    -0.22580000
opls_180-49    O    0.52596003    0.60300976    0.00000000    -0.12620000
opls_272-50    O    0.25627982    0.69212982    0.00000000    -0.22590000
opls_180-51    O    0.39698972    0.92294970    0.00000000    -0.12620000
opls_272-52    O    0.30787018    0.56415011    0.00000000    -0.22590000
opls_180-53    O    0.07704986    0.47403976    0.00000000    -0.12620000
opls_272-54    O    0.56415000    0.25627993    0.00000000    -0.22580000
opls_180-55    O    0.47403978    0.39698985    0.00000000    -0.12620000
opls_272-56    O    0.74371999    0.30786979    0.00000000    -0.22580000
opls_180-57    O    0.60301008    0.07704991    0.00000000    -0.12630000
opls_272-58    O    0.69212982    0.43584989    0.00000000    -0.22580000
opls_180-59    O    0.92294995    0.52595985    0.00000000    -0.12620000
opls_750-60    N    0.39764996    0.58995010    0.00000000    -0.14440000
opls_750-61    N    0.43617992    0.57720977    0.00000000    -0.14440000
opls_750-62    N    0.41004993    0.80769982    0.00000000    -0.14450000
opls_750-63    N    0.42279013    0.85896996    0.00000000    -0.14440000
opls_750-64    N    0.19230011    0.60235009    0.00000000    -0.14440000
opls_750-65    N    0.14103009    0.56381988    0.00000000    -0.14440000
opls_750-66    N    0.60235004    0.41004990    0.00000000    -0.14440000
opls_750-67    N    0.56381989    0.42278984    0.00000000    -0.14440000
opls_750-68    N    0.58994988    0.19229979    0.00000000    -0.14440000
opls_750-69    N    0.57720987    0.14103004    0.00000000    -0.14440000
opls_750-70    N    0.80769989    0.39764991    0.00000000    -0.14450000
opls_750-71    N    0.85896991    0.43618012    0.00000000    -0.14440000
opls_144-72    H    0.45296002    0.67320000    0.00000000    0.03120000
opls_144-73    H    0.38086008    0.49395987    0.00000000    0.03120000
opls_146-74    H    0.40666015    0.42997001    0.00000000    0.05290000
opls_185-75    H    0.60731986    0.63566981    0.83616910    0.02670000
opls_185-76    H    0.58971010    0.67938988    0.16383090    0.02670000
opls_144-77    H    0.32679975    0.77975978    0.00000000    0.03120000
opls_144-78    H    0.50603996    0.88688977    0.00000000    0.03120000
opls_146-79    H    0.57002978    0.97668973    0.00000000    0.05290000
opls_185-80    H    0.32339992    0.91423004    0.79948105    0.02670000
opls_185-81    H    0.36153992    0.96772969    0.20051895    0.02670000
opls_144-82    H    0.22024003    0.54703983    0.00000000    0.03120000
opls_144-83    H    0.11310986    0.61913986    0.00000000    0.03120000
opls_146-84    H    0.02330988    0.59333987    0.00000000    0.05290000
opls_185-85    H    0.02310001    0.39116987    0.92269096    0.02670000
opls_185-86    H    0.09493990    0.41179983    0.07730904    0.02670000
opls_144-87    H    0.54703998    0.32680000    0.00000000    0.03120000
opls_144-88    H    0.61913972    0.50603974    0.00000000    0.03120000
opls_146-89    H    0.59359002    0.56938976    0.00000000    0.05280000
opls_185-90    H    0.41028990    0.32061012    0.83616910    0.02670000
opls_185-91    H    0.39267994    0.36432981    0.16383090    0.02670000
opls_144-92    H    0.67320005    0.22023983    0.00000000    0.03120000
opls_144-93    H    0.49395984    0.11310984    0.00000000    0.03120000
opls_146-94    H    0.42997003    0.02330988    0.00000000    0.05290000
opls_185-95    H    0.63845988    0.03226992    0.79948105    0.02670000
opls_185-96    H    0.67660008    0.08576996    0.20051895    0.02670000
opls_144-97    H    0.77975978    0.45295978    0.00000000    0.03120000
opls_144-98    H    0.88688994    0.38085975    0.00000000    0.03120000
opls_146-99    H    0.97669012    0.40666013    0.00000000    0.05290000
opls_185-100    H    0.90505991    0.58819978    0.92269096    0.02670000
opls_185-101    H    0.97689980    0.60882974    0.07730904    0.02670000
