#======================================================================
# Crystal Data Generated By AuToFF
#----------------------------------------------------------------------

data_AuToFF_phase_1

_cell_length_a                         37.4026
_cell_length_b                         37.4026
_cell_length_c                         3.9699
_cell_angle_alpha                      90.00
_cell_angle_beta                       90.00
_cell_angle_gamma                      120.00
_symmetry_space_group_name_H-M_alt     'P 1'
_symmetry_space_group_IT_number        1

loop_
_space_group_symop_operation_xyz
   'x, y, z'

loop_
   _atom_site_label
   _atom_site_type_symbol
   _atom_site_fract_x
   _atom_site_fract_y
   _atom_site_fract_z
   _atom_site_charge
opls_700-0    C    0.47108002    0.95676009    0.66739968    -0.03850000
opls_145-1    C    0.45654007    0.98462009    0.65162095    -0.23530000
opls_166-2    C    0.48368993    0.02745002    0.66395879    0.27160000
opls_142-3    C    0.44075991    0.91215994    0.68746064    0.07110000
opls_145-4    C    0.42617988    0.84198990    0.81043099    0.19450000
opls_145-5    C    0.38512998    0.82042011    0.69349102    -0.16770000
opls_523-6    C    0.36180991    0.77750003    0.72439104    -0.12360000
opls_700-7    C    0.37922014    0.75528007    0.86595884    -0.00590000
opls_523-8    C    0.42009012    0.77680016    0.98241014    -0.11740000
opls_145-9    C    0.44316007    0.81976006    0.95673946    -0.16220000
opls_531-10    C    0.35531992    0.70980995    0.88286103    0.33260000
opls_465-11    C    0.61505997    0.56767989    0.77824882    0.56270000
opls_275-12    C    0.65954003    0.58769990    0.66515026    -0.10650000
opls_700-13    C    0.68607999    0.63194995    0.79163959    0.06120000
opls_145-14    C    0.67463993    0.66133998    0.70331998    -0.12980000
opls_145-15    C    0.69862013    0.70252010    0.80297992    -0.08490000
opls_145-16    C    0.73470008    0.71514992    0.98810046    -0.08710000
opls_145-17    C    0.74672004    0.68656997    0.07576009    -0.09160000
opls_145-18    C    0.72271002    0.64525000    0.97895917    -0.13050000
opls_135-19    C    0.67689998    0.55893009    0.73609915    -0.40670000
opls_700-20    C    0.04324015    0.51432007    0.66739968    -0.03850000
opls_145-21    C    0.01537982    0.47191988    0.65162095    -0.23530000
opls_166-22    C    0.97255001    0.45623989    0.66395879    0.27160000
opls_142-23    C    0.08784008    0.52860001    0.68746064    0.07110000
opls_145-24    C    0.15800995    0.58419004    0.81043099    0.19450000
opls_145-25    C    0.17958005    0.56470999    0.69349102    -0.16770000
opls_523-26    C    0.22250001    0.58431013    0.72439104    -0.12360000
opls_700-27    C    0.24472021    0.62394016    0.86595884    -0.00600000
opls_523-28    C    0.22319994    0.64328993    0.98241014    -0.11740000
opls_145-29    C    0.18023983    0.62339989    0.95673946    -0.16220000
opls_531-30    C    0.29018986    0.64550995    0.88286103    0.33260000
opls_465-31    C    0.43231982    0.04737988    0.77824882    0.56270000
opls_275-32    C    0.41229995    0.07183992    0.66515026    -0.10650000
opls_700-33    C    0.36805016    0.05413008    0.79163959    0.06120000
opls_145-34    C    0.33866010    0.01330005    0.70331998    -0.12980000
opls_145-35    C    0.29747994    0.99609991    0.80297992    -0.08490000
opls_145-36    C    0.28485006    0.01955013    0.98810046    -0.08710000
opls_145-37    C    0.31342983    0.06014985    0.07576009    -0.09160000
opls_145-38    C    0.35474996    0.07745990    0.97895917    -0.13050000
opls_135-39    C    0.44106998    0.11797009    0.73609915    -0.40670000
opls_700-40    C    0.48567999    0.52892015    0.66739968    -0.03850000
opls_145-41    C    0.52808011    0.54346003    0.65162095    -0.23530000
opls_166-42    C    0.54376006    0.51631009    0.66395879    0.27160000
opls_142-43    C    0.47140001    0.55924005    0.68746064    0.07110000
opls_145-44    C    0.41581016    0.57382006    0.81043099    0.19450000
opls_145-45    C    0.43528997    0.61486990    0.69349102    -0.16770000
opls_523-46    C    0.41568996    0.63819015    0.72439104    -0.12360000
opls_700-47    C    0.37606007    0.62078008    0.86595884    -0.00590000
opls_523-48    C    0.35670994    0.57990991    0.98241014    -0.11740000
opls_145-49    C    0.37660010    0.55684004    0.95673946    -0.16220000
opls_531-50    C    0.35448996    0.64468010    0.88286103    0.33260000
opls_465-51    C    0.95262006    0.38493992    0.77824882    0.56270000
opls_275-52    C    0.92815987    0.34045987    0.66515026    -0.10650000
opls_700-53    C    0.94587011    0.31391997    0.79163959    0.06120000
opls_145-54    C    0.98669997    0.32535997    0.70331998    -0.12980000
opls_145-55    C    0.00389993    0.30137999    0.80297992    -0.08490000
opls_145-56    C    0.98044986    0.26529995    0.98810046    -0.08710000
opls_145-57    C    0.93984998    0.25327986    0.07576009    -0.09160000
opls_145-58    C    0.92254002    0.27729010    0.97895917    -0.13050000
opls_135-59    C    0.88203019    0.32310012    0.73609915    -0.40670000
opls_700-60    C    0.52891998    0.04323991    0.66739968    -0.03850000
opls_145-61    C    0.54345993    0.01537991    0.65162095    -0.23530000
opls_166-62    C    0.51631007    0.97254998    0.66395879    0.27160000
opls_142-63    C    0.55924009    0.08784006    0.68746064    0.07110000
opls_145-64    C    0.57382012    0.15801010    0.81043099    0.19450000
opls_145-65    C    0.61487002    0.17957989    0.69349102    -0.16770000
opls_523-66    C    0.63819009    0.22249997    0.72439104    -0.12360000
opls_700-67    C    0.62077986    0.24471993    0.86595884    -0.00590000
opls_523-68    C    0.57991003    0.22320015    0.98241014    -0.11740000
opls_145-69    C    0.55683993    0.18023994    0.95673946    -0.16220000
opls_531-70    C    0.64468008    0.29019005    0.88286103    0.33260000
opls_465-71    C    0.38494003    0.43232011    0.77824882    0.56270000
opls_275-72    C    0.34045997    0.41230010    0.66515026    -0.10650000
opls_700-73    C    0.31392001    0.36805005    0.79163959    0.06120000
opls_145-74    C    0.32536007    0.33866002    0.70331998    -0.12980000
opls_145-75    C    0.30137987    0.29747990    0.80297992    -0.08490000
opls_145-76    C    0.26529992    0.28485008    0.98810046    -0.08710000
opls_145-77    C    0.25327996    0.31343003    0.07576009    -0.09160000
opls_145-78    C    0.27728998    0.35475000    0.97895917    -0.13050000
opls_135-79    C    0.32310002    0.44106991    0.73609915    -0.40670000
opls_700-80    C    0.95675985    0.48567993    0.66739968    -0.03850000
opls_145-81    C    0.98462018    0.52808012    0.65162095    -0.23530000
opls_166-82    C    0.02744999    0.54376011    0.66395879    0.27160000
opls_142-83    C    0.91215992    0.47139999    0.68746064    0.07110000
opls_145-84    C    0.84199005    0.41580996    0.81043099    0.19450000
opls_145-85    C    0.82041995    0.43529001    0.69349102    -0.16770000
opls_523-86    C    0.77749999    0.41568987    0.72439104    -0.12360000
opls_700-87    C    0.75527995    0.37606015    0.86595884    -0.00600000
opls_523-88    C    0.77680006    0.35671007    0.98241014    -0.11740000
opls_145-89    C    0.81976017    0.37660011    0.95673946    -0.16220000
opls_531-90    C    0.70981014    0.35449005    0.88286103    0.33260000
opls_465-91    C    0.56768018    0.95262012    0.77824882    0.56280000
opls_275-92    C    0.58770005    0.92816008    0.66515026    -0.10650000
opls_700-93    C    0.63194984    0.94586992    0.79163959    0.06120000
opls_145-94    C    0.66133990    0.98669995    0.70331998    -0.12980000
opls_145-95    C    0.70252006    0.00390009    0.80297992    -0.08490000
opls_145-96    C    0.71515009    0.98045018    0.98810046    -0.08710000
opls_145-97    C    0.68657017    0.93985015    0.07576009    -0.09160000
opls_145-98    C    0.64525004    0.92254010    0.97895917    -0.13050000
opls_135-99    C    0.55893002    0.88202991    0.73609915    -0.40670000
opls_700-100    C    0.51432016    0.47108016    0.66739968    -0.03850000
opls_145-101    C    0.47191989    0.45653997    0.65162095    -0.23530000
opls_166-102    C    0.45623994    0.48368991    0.66395879    0.27170000
opls_142-103    C    0.52859999    0.44075995    0.68746064    0.07110000
opls_145-104    C    0.58418984    0.42617994    0.81043099    0.19450000
opls_145-105    C    0.56471003    0.38513010    0.69349102    -0.16760000
opls_523-106    C    0.58431019    0.36181016    0.72439104    -0.12360000
opls_700-107    C    0.62393993    0.37921992    0.86595884    -0.00590000
opls_523-108    C    0.64329006    0.42009009    0.98241014    -0.11740000
opls_145-109    C    0.62339990    0.44315996    0.95673946    -0.16220000
opls_531-110    C    0.64551004    0.35531990    0.88286103    0.33260000
opls_465-111    C    0.04737994    0.61506008    0.77824882    0.56270000
opls_275-112    C    0.07184013    0.65954013    0.66515026    -0.10650000
opls_700-113    C    0.05412989    0.68608003    0.79163959    0.06120000
opls_145-114    C    0.01330003    0.67464003    0.70331998    -0.12980000
opls_145-115    C    0.99610007    0.69862001    0.80297992    -0.08490000
opls_145-116    C    0.01955014    0.73470005    0.98810046    -0.08710000
opls_145-117    C    0.06015002    0.74672014    0.07576009    -0.09160000
opls_145-118    C    0.07745998    0.72270990    0.97895917    -0.13050000
opls_135-119    C    0.11796996    0.67690018    0.73609915    -0.40670000
opls_750-120    N    0.45215006    0.88592012    0.77636968    -0.34420000
opls_520-121    N    0.31352002    0.68972017    0.88254112    -0.40240000
opls_750-122    N    0.11408003    0.56623013    0.77636968    -0.34420000
opls_520-123    N    0.31028006    0.62380000    0.88254112    -0.40230000
opls_750-124    N    0.43377007    0.54785006    0.77636968    -0.34420000
opls_520-125    N    0.37620008    0.68648014    0.88254112    -0.40220000
opls_750-126    N    0.54784994    0.11407988    0.77636968    -0.34420000
opls_520-127    N    0.68648013    0.31028013    0.88254112    -0.40240000
opls_750-128    N    0.88592013    0.43377017    0.77636968    -0.34420000
opls_520-129    N    0.68971994    0.37620000    0.88254112    -0.40240000
opls_750-130    N    0.56622993    0.45214994    0.77636968    -0.34420000
opls_520-131    N    0.62379992    0.31351986    0.88254112    -0.40230000
opls_146-132    H    0.42366012    0.97269014    0.62782942    0.11860000
opls_144-133    H    0.40861992    0.90224997    0.64327061    0.12200000
opls_146-134    H    0.37097003    0.83605009    0.57159122    0.12100000
opls_526-135    H    0.33053021    0.76158016    0.62812917    0.11720000
opls_526-136    H    0.43414997    0.76047000    0.09561954    0.11840000
opls_146-137    H    0.47447002    0.83585004    0.05139928    0.12160000
opls_702-138    H    0.65914016    0.59008014    0.38944054    0.06710000
opls_146-139    H    0.64718008    0.65232993    0.55416005    0.11840000
opls_146-140    H    0.68941013    0.72474006    0.73362049    0.11820000
opls_146-141    H    0.75329012    0.74708011    0.06455074    0.11820000
opls_146-142    H    0.77459989    0.69637993    0.22096023    0.11860000
opls_146-143    H    0.73301006    0.62408989    0.05366886    0.12220000
opls_140-144    H    0.67757013    0.55354999    0.00970050    0.17340000
opls_140-145    H    0.65746011    0.52862995    0.61135041    0.17220000
opls_140-146    H    0.70855000    0.57221008    0.63108894    0.17220000
opls_146-147    H    0.02731001    0.45097000    0.62782942    0.11860000
opls_144-148    H    0.09775017    0.50637017    0.64327061    0.12200000
opls_146-149    H    0.16395017    0.53492016    0.57159122    0.12100000
opls_526-150    H    0.23841990    0.56894997    0.62812917    0.11720000
opls_526-151    H    0.23952987    0.67367990    0.09561954    0.11840000
opls_146-152    H    0.16414988    0.63861989    0.05139928    0.12160000
opls_702-153    H    0.40991989    0.06905988    0.38944054    0.06710000
opls_146-154    H    0.34766985    0.99484990    0.55416005    0.11840000
opls_146-155    H    0.27526017    0.96467016    0.73362049    0.11820000
opls_146-156    H    0.25291996    0.00620994    0.06455074    0.11820000
opls_146-157    H    0.30361994    0.07821997    0.22096023    0.11860000
opls_146-158    H    0.37591007    0.10891991    0.05366886    0.12220000
opls_140-159    H    0.44645018    0.12402012    0.00970050    0.17330000
opls_140-160    H    0.47137013    0.12883001    0.61135041    0.17220000
opls_140-161    H    0.42778991    0.13633998    0.63108894    0.17220000
opls_146-162    H    0.54903002    0.57634016    0.62782942    0.11860000
opls_144-163    H    0.49363007    0.59138017    0.64327061    0.12200000
opls_146-164    H    0.46507996    0.62903006    0.57159122    0.12100000
opls_526-165    H    0.43105005    0.66947017    0.62812917    0.11720000
opls_526-166    H    0.32632016    0.56585010    0.09561954    0.11850000
opls_146-167    H    0.36138011    0.52553008    0.05139928    0.12160000
opls_702-168    H    0.93093995    0.34085998    0.38944054    0.06710000
opls_146-169    H    0.00514991    0.35281987    0.55416005    0.11840000
opls_146-170    H    0.03533012    0.31059009    0.73362049    0.11860000
opls_146-171    H    0.99378992    0.24670995    0.06455074    0.11820000
opls_146-172    H    0.92178017    0.22540010    0.22096023    0.11860000
opls_146-173    H    0.89107998    0.26698990    0.05366886    0.12220000
opls_140-174    H    0.87597996    0.32242989    0.00970050    0.17330000
opls_140-175    H    0.87117003    0.34254004    0.61135041    0.17220000
opls_140-176    H    0.86366009    0.29144994    0.63108894    0.17220000
opls_146-177    H    0.57633988    0.02730986    0.62782942    0.11860000
opls_144-178    H    0.59138008    0.09775003    0.64327061    0.12200000
opls_146-179    H    0.62902997    0.16394991    0.57159122    0.12100000
opls_526-180    H    0.66946995    0.23842015    0.62812917    0.11720000
opls_526-181    H    0.56585003    0.23953000    0.09561954    0.11840000
opls_146-182    H    0.52552998    0.16414996    0.05139928    0.12160000
opls_702-183    H    0.34085999    0.40992016    0.38944054    0.06710000
opls_146-184    H    0.35281992    0.34767007    0.55416005    0.11840000
opls_146-185    H    0.31058987    0.27525994    0.73362049    0.11820000
opls_146-186    H    0.24670988    0.25291989    0.06455074    0.11820000
opls_146-187    H    0.22540011    0.30362007    0.22096023    0.11860000
opls_146-188    H    0.26698994    0.37591011    0.05366886    0.12220000
opls_140-189    H    0.32242987    0.44645001    0.00970050    0.17330000
opls_140-190    H    0.34253989    0.47137005    0.61135041    0.17220000
opls_140-191    H    0.29145000    0.42778992    0.63108894    0.17230000
opls_146-192    H    0.97268999    0.54903000    0.62782942    0.11860000
opls_144-193    H    0.90224999    0.49363014    0.64327061    0.12200000
opls_146-194    H    0.83604999    0.46508014    0.57159122    0.12100000
opls_526-195    H    0.76158010    0.43105003    0.62812917    0.11720000
opls_526-196    H    0.76047013    0.32632010    0.09561954    0.11840000
opls_146-197    H    0.83585012    0.36138011    0.05139928    0.12160000
opls_702-198    H    0.59008011    0.93094012    0.38944054    0.06710000
opls_146-199    H    0.65233015    0.00515010    0.55416005    0.11840000
opls_146-200    H    0.72473998    0.03533015    0.73362049    0.11820000
opls_146-201    H    0.74708004    0.99379006    0.06455074    0.11820000
opls_146-202    H    0.69638006    0.92178003    0.22096023    0.11860000
opls_146-203    H    0.62408993    0.89108009    0.05366886    0.12220000
opls_140-204    H    0.55354998    0.87598019    0.00970050    0.17330000
opls_140-205    H    0.52862987    0.87116999    0.61135041    0.17220000
opls_140-206    H    0.57221009    0.86366002    0.63108894    0.17220000
opls_146-207    H    0.45097013    0.42366015    0.62782942    0.11860000
opls_144-208    H    0.50637009    0.40862014    0.64327061    0.12200000
opls_146-209    H    0.53492004    0.37096994    0.57159122    0.12100000
opls_526-210    H    0.56895011    0.33053014    0.62812917    0.11720000
opls_526-211    H    0.67367984    0.43414990    0.09561954    0.11840000
opls_146-212    H    0.63861989    0.47446992    0.05139928    0.12160000
opls_702-213    H    0.06906005    0.65914002    0.38944054    0.06710000
opls_146-214    H    0.99485009    0.64718013    0.55416005    0.11840000
opls_146-215    H    0.96466988    0.68940991    0.73362049    0.11860000
opls_146-216    H    0.00621008    0.75329005    0.06455074    0.11820000
opls_146-217    H    0.07821983    0.77459990    0.22096023    0.11860000
opls_146-218    H    0.10892002    0.73301010    0.05366886    0.12220000
opls_140-219    H    0.12402004    0.67757011    0.00970050    0.17330000
opls_140-220    H    0.12882997    0.65745996    0.61135041    0.17220000
opls_140-221    H    0.13633991    0.70855006    0.63108894    0.17220000
opls_473-222    O    0.58618002    0.53036991    0.62459004    -0.27770000
opls_466-223    O    0.60475001    0.58324998    0.00067004    -0.48110000
opls_473-224    O    0.46962998    0.05581015    0.62459004    -0.27780000
opls_466-225    O    0.41675013    0.02150002    0.00067004    -0.48110000
opls_473-226    O    0.94419000    0.41381994    0.62459004    -0.27780000
opls_466-227    O    0.97850013    0.39525000    0.00067004    -0.48110000
opls_473-228    O    0.41381998    0.46963009    0.62459004    -0.27780000
opls_466-229    O    0.39524999    0.41675002    0.00067004    -0.48110000
opls_473-230    O    0.53037017    0.94419016    0.62459004    -0.27770000
opls_466-231    O    0.58324987    0.97849998    0.00067004    -0.48110000
opls_473-232    O    0.05581000    0.58618006    0.62459004    -0.27780000
opls_466-233    O    0.02149987    0.60475000    0.00067004    -0.48110000
