#======================================================================
# Crystal Data Generated By AuToFF
#----------------------------------------------------------------------

data_AuToFF_phase_1

_cell_length_a                         18.3600
_cell_length_b                         18.3600
_cell_length_c                         6.7200
_cell_angle_alpha                      90.00
_cell_angle_beta                       90.00
_cell_angle_gamma                      120.00
_symmetry_space_group_name_H-M_alt     'P 1'
_symmetry_space_group_IT_number        1

loop_
_space_group_symop_operation_xyz
   'x, y, z'

loop_
   _atom_site_label
   _atom_site_type_symbol
   _atom_site_fract_x
   _atom_site_fract_y
   _atom_site_fract_z
   _atom_site_charge
opls_531-0    C    0.03284987    0.95046990    0.25000000    0.39060000
opls_700-1    C    0.06971984    0.89488957    0.25000000    0.00200000
opls_145-2    C    0.05214999    0.75485009    0.25000000    -0.09700000
opls_523-3    C    0.15745018    0.92914002    0.25000000    -0.08460000
opls_523-4    C    0.01759003    0.80696003    0.25000000    -0.09700000
opls_700-5    C    0.19201994    0.87703008    0.25000000    0.10380000
opls_523-6    C    0.17444991    0.73700003    0.25000000    -0.08460000
opls_145-7    C    0.27975010    0.91128996    0.25000000    -0.09700000
opls_700-8    C    0.13988995    0.78910997    0.25000000    0.10380000
opls_523-9    C    0.31431006    0.85918002    0.25000000    -0.09690000
opls_531-10    C    0.28432978    0.58337961    0.25000000    0.39060000
opls_700-11    C    0.22874986    0.49093001    0.25000000    0.00200000
opls_531-12    C    0.04952984    0.08237994    0.25000000    0.39050000
opls_700-13    C    0.10511008    0.17483018    0.25000000    0.00200000
opls_145-14    C    0.24515005    0.29730010    0.25000000    -0.09700000
opls_523-15    C    0.07085975    0.22830990    0.25000000    -0.08460000
opls_523-16    C    0.19303977    0.21062966    0.25000000    -0.09700000
opls_700-17    C    0.12296984    0.31498978    0.25000000    0.10380000
opls_523-18    C    0.26299988    0.43744965    0.25000000    -0.08460000
opls_145-19    C    0.08870989    0.36846008    0.25000000    -0.09700000
opls_700-20    C    0.21088992    0.35077983    0.25000000    0.10380000
opls_523-21    C    0.14081985    0.45512989    0.25000000    -0.09700000
opls_531-22    C    0.41661968    0.70094961    0.25000000    0.39050000
opls_700-23    C    0.50907020    0.73782014    0.25000000    0.00200000
opls_531-24    C    0.91761997    0.96714953    0.25000000    0.39050000
opls_700-25    C    0.82516977    0.93027962    0.25000000    0.00200000
opls_145-26    C    0.70269996    0.94784981    0.25000000    -0.09700000
opls_523-27    C    0.77169007    0.84255008    0.25000000    -0.08460000
opls_523-28    C    0.78936988    0.98240969    0.25000000    -0.09700000
opls_700-29    C    0.68500991    0.80797951    0.25000000    0.10380000
opls_523-30    C    0.56254990    0.82554969    0.25000000    -0.08460000
opls_145-31    C    0.63154001    0.72024996    0.25000000    -0.09700000
opls_700-32    C    0.64921982    0.86010957    0.25000000    0.10380000
opls_523-33    C    0.54487010    0.68569008    0.25000000    -0.09700000
opls_531-34    C    0.29905022    0.71567015    0.25000000    0.39050000
opls_700-35    C    0.26217994    0.77124985    0.25000000    0.00200000
opls_531-36    C    0.96715013    0.04953010    0.75000000    0.39050000
opls_700-37    C    0.93027985    0.10510980    0.75000000    0.00200000
opls_145-38    C    0.94785001    0.24514991    0.75000000    -0.09700000
opls_523-39    C    0.84254982    0.07085998    0.75000000    -0.08460000
opls_523-40    C    0.98240997    0.19303997    0.75000000    -0.09700000
opls_700-41    C    0.80798006    0.12296992    0.75000000    0.10380000
opls_523-42    C    0.82555009    0.26299997    0.75000000    -0.08460000
opls_145-43    C    0.72024990    0.08871004    0.75000000    -0.09700000
opls_700-44    C    0.86011005    0.21089003    0.75000000    0.10380000
opls_523-45    C    0.68568994    0.14081998    0.75000000    -0.09700000
opls_531-46    C    0.71566990    0.41661976    0.75000000    0.39060000
opls_700-47    C    0.77125014    0.50906999    0.75000000    0.00200000
opls_531-48    C    0.95047016    0.91762006    0.75000000    0.39060000
opls_700-49    C    0.89488992    0.82516982    0.75000000    0.00200000
opls_145-50    C    0.75484995    0.70269990    0.75000000    -0.09700000
opls_523-51    C    0.92914025    0.77169010    0.75000000    -0.08450000
opls_523-52    C    0.80695991    0.78936971    0.75000000    -0.09700000
opls_700-53    C    0.87702985    0.68500959    0.75000000    0.10380000
opls_523-54    C    0.73699981    0.56254972    0.75000000    -0.08460000
opls_145-55    C    0.91129011    0.63153992    0.75000000    -0.09700000
opls_700-56    C    0.78910977    0.64921954    0.75000000    0.10380000
opls_523-57    C    0.85918015    0.54487011    0.75000000    -0.09700000
opls_531-58    C    0.58338000    0.29904976    0.75000000    0.39050000
opls_700-59    C    0.49092980    0.26217986    0.75000000    0.00200000
opls_531-60    C    0.08237971    0.03284984    0.75000000    0.39060000
opls_700-61    C    0.17482992    0.06971975    0.75000000    0.00200000
opls_145-62    C    0.29730004    0.05215019    0.75000000    -0.09700000
opls_523-63    C    0.22830993    0.15744992    0.75000000    -0.08460000
opls_523-64    C    0.21062981    0.01758968    0.75000000    -0.09690000
opls_700-65    C    0.31498978    0.19201986    0.75000000    0.10390000
opls_523-66    C    0.43744978    0.17444968    0.75000000    -0.08460000
opls_145-67    C    0.36845999    0.27975004    0.75000000    -0.09700000
opls_700-68    C    0.35077987    0.13988980    0.75000000    0.10390000
opls_523-69    C    0.45512990    0.31430992    0.75000000    -0.09700000
opls_531-70    C    0.70094978    0.28432985    0.75000000    0.39060000
opls_700-71    C    0.73782006    0.22875015    0.75000000    0.00200000
opls_520-72    N    0.94822982    0.91388992    0.25000000    -0.36000000
opls_520-73    N    0.24774966    0.63141980    0.25000000    -0.36240000
opls_520-74    N    0.08610996    0.03433975    0.25000000    -0.36000000
opls_520-75    N    0.36858007    0.61633008    0.25000000    -0.36250000
opls_520-76    N    0.96565990    0.05176969    0.25000000    -0.35990000
opls_520-77    N    0.38367027    0.75225012    0.25000000    -0.36250000
opls_520-78    N    0.05177018    0.08611008    0.75000000    -0.36000000
opls_520-79    N    0.75225034    0.36858020    0.75000000    -0.36240000
opls_520-80    N    0.91388972    0.96565962    0.75000000    -0.36000000
opls_520-81    N    0.63141993    0.38366992    0.75000000    -0.36240000
opls_520-82    N    0.03433979    0.94822968    0.75000000    -0.36000000
opls_520-83    N    0.61632973    0.24774988    0.75000000    -0.36250000
opls_146-84    H    0.00934005    0.68363980    0.25000000    0.04780000
opls_526-85    H    0.20082009    0.00026981    0.25000000    0.04790000
opls_526-86    H    0.94630958    0.77792963    0.25000000    0.04780000
opls_526-87    H    0.13162962    0.66578974    0.25000000    0.04780000
opls_526-88    H    0.38551965    0.88757961    0.25000000    0.04780000
opls_146-89    H    0.32310966    0.98241975    0.25000000    0.04780000
opls_146-90    H    0.31635965    0.32569969    0.25000000    0.04780000
opls_526-91    H    0.99972976    0.20054993    0.25000000    0.04780000
opls_526-92    H    0.22207015    0.16837995    0.25000000    0.04780000
opls_526-93    H    0.33420966    0.46583980    0.25000000    0.04780000
opls_526-94    H    0.11241987    0.49793997    0.25000000    0.04780000
opls_146-95    H    0.01757977    0.34069004    0.25000000    0.04780000
opls_146-96    H    0.67429999    0.99065988    0.25000000    0.04790000
opls_526-97    H    0.79944984    0.79917963    0.25000000    0.04780000
opls_526-98    H    0.83161995    0.05368979    0.25000000    0.04780000
opls_526-99    H    0.53415986    0.86836983    0.25000000    0.04780000
opls_526-100    H    0.50206016    0.61447979    0.25000000    0.04780000
opls_146-101    H    0.65930971    0.67688958    0.25000000    0.04780000
opls_146-102    H    0.99065995    0.31636020    0.75000000    0.04780000
opls_526-103    H    0.79917991    0.99973019    0.75000000    0.04780000
opls_526-104    H    0.05369010    0.22206974    0.75000000    0.04780000
opls_526-105    H    0.86837007    0.33420963    0.75000000    0.04780000
opls_526-106    H    0.61448003    0.11241976    0.75000000    0.04780000
opls_146-107    H    0.67689034    0.01758025    0.75000000    0.04780000
opls_146-108    H    0.68364004    0.67429968    0.75000000    0.04790000
opls_526-109    H    0.00027024    0.79945007    0.75000000    0.04780000
opls_526-110    H    0.77792985    0.83162005    0.75000000    0.04780000
opls_526-111    H    0.66579002    0.53415957    0.75000000    0.04780000
opls_526-112    H    0.88758013    0.50206003    0.75000000    0.04780000
opls_146-113    H    0.98242023    0.65930996    0.75000000    0.04780000
opls_146-114    H    0.32570001    0.00934012    0.75000000    0.04780000
opls_526-115    H    0.20054985    0.20081974    0.75000000    0.04780000
opls_526-116    H    0.16838005    0.94631021    0.75000000    0.04780000
opls_526-117    H    0.46584014    0.13163017    0.75000000    0.04780000
opls_526-118    H    0.49793984    0.38552021    0.75000000    0.04780000
opls_146-119    H    0.34068997    0.32310979    0.75000000    0.04780000
