#======================================================================
# Crystal Data Generated By AuToFF
#----------------------------------------------------------------------

data_AuToFF_phase_1

_cell_length_a                         52.8000
_cell_length_b                         53.7000
_cell_length_c                         3.8300
_cell_angle_alpha                      90.00
_cell_angle_beta                       75.00
_cell_angle_gamma                      90.00
_symmetry_space_group_name_H-M_alt     'P 1'
_symmetry_space_group_IT_number        1

loop_
_space_group_symop_operation_xyz
   'x, y, z'

loop_
   _atom_site_label
   _atom_site_type_symbol
   _atom_site_fract_x
   _atom_site_fract_y
   _atom_site_fract_z
   _atom_site_charge
opls_700-0    C    0.44604995    0.52278007    0.49619949    0.02880000
opls_700-1    C    0.94604995    0.02278007    0.49619949    0.02880000
opls_700-2    C    0.55395005    0.52278007    0.50380051    0.02600000
opls_700-3    C    0.05395005    0.02278007    0.50380051    0.02600000
opls_700-4    C    0.55395005    0.47721006    0.50380051    0.02600000
opls_700-5    C    0.05395005    0.97721006    0.50380051    0.02600000
opls_700-6    C    0.44604995    0.47721006    0.49619949    0.02880000
opls_700-7    C    0.94604995    0.97721006    0.49619949    0.02880000
opls_700-8    C    0.47302995    0.52285996    0.49561022    0.02220000
opls_700-9    C    0.97302997    0.02285996    0.49559941    0.02220000
opls_700-10    C    0.52697988    0.52285996    0.50440059    0.02220000
opls_700-11    C    0.02697990    0.02285996    0.50438978    0.02220000
opls_700-12    C    0.52697988    0.47714004    0.50440059    0.02220000
opls_700-13    C    0.02697990    0.97714004    0.50438978    0.02220000
opls_700-14    C    0.47302995    0.47714004    0.49561022    0.02220000
opls_700-15    C    0.97302997    0.97714004    0.49559941    0.02220000
opls_145-16    C    0.48690006    0.54505996    0.50141911    -0.08390000
opls_145-17    C    0.98690006    0.04505996    0.50141911    -0.08390000
opls_145-18    C    0.51309999    0.54505996    0.49857819    -0.08390000
opls_145-19    C    0.01309999    0.04505996    0.49857819    -0.08390000
opls_145-20    C    0.51309999    0.45494004    0.49857819    -0.08390000
opls_145-21    C    0.01309999    0.95494004    0.49857819    -0.08390000
opls_145-22    C    0.48690006    0.45494004    0.50141911    -0.08390000
opls_145-23    C    0.98690006    0.95494004    0.50141911    -0.08380000
opls_700-24    C    0.42972992    0.54578007    0.52297067    0.06460000
opls_700-25    C    0.92972992    0.04578007    0.52297067    0.06450000
opls_700-26    C    0.57026004    0.54578007    0.47702933    0.06450000
opls_700-27    C    0.07026989    0.04578007    0.47702933    0.06450000
opls_700-28    C    0.57026004    0.45421993    0.47702933    0.06410000
opls_700-29    C    0.07026989    0.95421993    0.47702933    0.06500000
opls_700-30    C    0.42972992    0.45421993    0.52297067    0.06500000
opls_700-31    C    0.92972992    0.95421993    0.52297067    0.06500000
opls_145-32    C    0.56172992    0.56628994    0.70280849    -0.13580000
opls_145-33    C    0.06172992    0.06628994    0.70280849    -0.13580000
opls_145-34    C    0.43826994    0.56628994    0.29718881    -0.13580000
opls_145-35    C    0.93826994    0.06628994    0.29718881    -0.13580000
opls_145-36    C    0.43826994    0.43371006    0.29718881    -0.13580000
opls_145-37    C    0.93826994    0.93371006    0.29718881    -0.13580000
opls_145-38    C    0.56172992    0.43371006    0.70280849    -0.13580000
opls_145-39    C    0.06172992    0.93371006    0.70280849    -0.13580000
opls_145-40    C    0.57611995    0.58830000    0.65972969    -0.17140000
opls_145-41    C    0.07611995    0.08830000    0.65972969    -0.17140000
opls_145-42    C    0.42388005    0.58830000    0.34027031    -0.17140000
opls_145-43    C    0.92388005    0.08830000    0.34027031    -0.17130000
opls_145-44    C    0.42388005    0.41170000    0.34027031    -0.17140000
opls_145-45    C    0.92388005    0.91170000    0.34027031    -0.17140000
opls_145-46    C    0.57611995    0.41170000    0.65972969    -0.17130000
opls_145-47    C    0.07611995    0.91170000    0.65972969    -0.17140000
opls_145-48    C    0.60015006    0.58995996    0.39721043    0.17750000
opls_145-49    C    0.10015006    0.08995996    0.39721043    0.17750000
opls_145-50    C    0.39984994    0.58995996    0.60278957    0.17750000
opls_145-51    C    0.89984994    0.08995996    0.60278957    0.17760000
opls_145-52    C    0.39984994    0.41004004    0.60278957    0.17350000
opls_145-53    C    0.89984994    0.91004004    0.60278957    0.17350000
opls_145-54    C    0.60015006    0.41004004    0.39721043    0.17350000
opls_145-55    C    0.10015006    0.91004004    0.39721043    0.17350000
opls_145-56    C    0.60993993    0.56892998    0.19135018    -0.17970000
opls_145-57    C    0.10993993    0.06892998    0.19135018    -0.17840000
opls_145-58    C    0.39005988    0.56892998    0.80864982    -0.17970000
opls_145-59    C    0.89005988    0.06892998    0.80864982    -0.17840000
opls_145-60    C    0.39005988    0.43105996    0.80864982    -0.17960000
opls_145-61    C    0.89005988    0.93105996    0.80864982    -0.17970000
opls_145-62    C    0.60993993    0.43105996    0.19135018    -0.17970000
opls_145-63    C    0.10993993    0.93105996    0.19135018    -0.17970000
opls_145-64    C    0.59505008    0.54705996    0.22747939    -0.13920000
opls_145-65    C    0.09505008    0.04704991    0.22747939    -0.13900000
opls_145-66    C    0.40494997    0.54705996    0.77251791    -0.13900000
opls_145-67    C    0.90494997    0.04704991    0.77251791    -0.13900000
opls_145-68    C    0.40494997    0.45294004    0.77251791    -0.13920000
opls_145-69    C    0.90494997    0.95294004    0.77251791    -0.13910000
opls_145-70    C    0.59505008    0.45294004    0.22747939    -0.13880000
opls_145-71    C    0.09505008    0.95294004    0.22747939    -0.13920000
opls_142-72    C    0.60637994    0.63448994    0.43817002    0.06660000
opls_142-73    C    0.10637994    0.13448994    0.43817002    0.06660000
opls_142-74    C    0.39362991    0.63448994    0.56182998    0.06660000
opls_142-75    C    0.89362991    0.13448994    0.56182998    0.06660000
opls_142-76    C    0.39362991    0.36551006    0.56182998    0.06660000
opls_142-77    C    0.89362991    0.86551006    0.56182998    0.06660000
opls_142-78    C    0.60637994    0.36551006    0.43817002    0.06660000
opls_142-79    C    0.10637994    0.86551006    0.43817002    0.06660000
opls_700-80    C    0.62410990    0.65594991    0.40177051    0.04980000
opls_700-81    C    0.12410990    0.15595009    0.40177051    0.04980000
opls_700-82    C    0.37588991    0.65594991    0.59822949    0.04970000
opls_700-83    C    0.87588991    0.15595009    0.59822949    0.04980000
opls_700-84    C    0.37588991    0.34404991    0.59822949    0.04970000
opls_700-85    C    0.87588991    0.84405009    0.59822949    0.04980000
opls_700-86    C    0.62410990    0.34404991    0.40177051    0.04980000
opls_700-87    C    0.12410990    0.84405009    0.40177051    0.04980000
opls_145-88    C    0.61495006    0.67814991    0.58288958    -0.12320000
opls_145-89    C    0.11495006    0.17815009    0.58288958    -0.12320000
opls_145-90    C    0.38504994    0.67814991    0.41711042    -0.12320000
opls_145-91    C    0.88504994    0.17815009    0.41711042    -0.12320000
opls_145-92    C    0.38504994    0.32185009    0.41711042    -0.12320000
opls_145-93    C    0.88504994    0.82184991    0.41711042    -0.12320000
opls_145-94    C    0.61495006    0.32185009    0.58288958    -0.12320000
opls_145-95    C    0.11495006    0.82184991    0.58288958    -0.12320000
opls_145-96    C    0.63212991    0.69791006    0.58250034    -0.12710000
opls_145-97    C    0.13212991    0.19791006    0.58250034    -0.12710000
opls_145-98    C    0.36786990    0.69791006    0.41749966    -0.12710000
opls_145-99    C    0.86786990    0.19791006    0.41749966    -0.12710000
opls_145-100    C    0.36786990    0.30208994    0.41749966    -0.12710000
opls_145-101    C    0.86786990    0.80208994    0.41749966    -0.12710000
opls_145-102    C    0.63212991    0.30208994    0.58250034    -0.12710000
opls_145-103    C    0.13212991    0.80208994    0.58250034    -0.12710000
opls_700-104    C    0.65877991    0.69590000    0.39662927    0.07340000
opls_700-105    C    0.15877991    0.19590000    0.39662927    0.07340000
opls_700-106    C    0.34121995    0.69590000    0.60336802    0.07340000
opls_700-107    C    0.84121995    0.19590000    0.60336802    0.07340000
opls_700-108    C    0.34121995    0.30410000    0.60336802    0.06770000
opls_700-109    C    0.84121995    0.80410000    0.60336802    0.06770000
opls_700-110    C    0.65877991    0.30410000    0.39662927    0.06770000
opls_700-111    C    0.15877991    0.80410000    0.39662927    0.06770000
opls_145-112    C    0.66749998    0.67405996    0.19924855    -0.13270000
opls_145-113    C    0.16749998    0.17405996    0.19924855    -0.13490000
opls_145-114    C    0.33250007    0.67405996    0.80074875    -0.13270000
opls_145-115    C    0.83250007    0.17405996    0.80074875    -0.13520000
opls_145-116    C    0.33250007    0.32594004    0.80074875    -0.13270000
opls_145-117    C    0.83250007    0.82594004    0.80074875    -0.13410000
opls_145-118    C    0.66749998    0.32594004    0.19924855    -0.13270000
opls_145-119    C    0.16749998    0.82594004    0.19924855    -0.13270000
opls_145-120    C    0.65037999    0.65421993    0.20347074    -0.12320000
opls_145-121    C    0.15037999    0.15421006    0.20347074    -0.12320000
opls_145-122    C    0.34962001    0.65421993    0.79652926    -0.12320000
opls_145-123    C    0.84963005    0.15421006    0.79652926    -0.12320000
opls_145-124    C    0.34962001    0.34578007    0.79652926    -0.12320000
opls_145-125    C    0.84963005    0.84578007    0.79652926    -0.12320000
opls_145-126    C    0.65037999    0.34578007    0.20347074    -0.12320000
opls_145-127    C    0.15037999    0.84578007    0.20347074    -0.12320000
opls_567-128    C    0.67795008    0.71545009    0.42584944    0.01310000
opls_567-129    C    0.17795006    0.21545009    0.42586025    0.01310000
opls_567-130    C    0.32204994    0.71545009    0.57413975    0.01310000
opls_567-131    C    0.82204994    0.21545009    0.57413975    0.01310000
opls_567-132    C    0.32204994    0.28454004    0.57413975    0.01310000
opls_567-133    C    0.82204994    0.78454004    0.57413975    0.01310000
opls_567-134    C    0.67795008    0.28454004    0.42584944    0.01310000
opls_567-135    C    0.17795006    0.78454004    0.42586025    0.01310000
opls_567-136    C    0.71562005    0.73878994    0.45615894    -0.06940000
opls_567-137    C    0.21562005    0.23878994    0.45615894    -0.06940000
opls_567-138    C    0.28438000    0.73878994    0.54383836    -0.06940000
opls_567-139    C    0.78438000    0.23878994    0.54383836    -0.06940000
opls_567-140    C    0.28438000    0.26121006    0.54383836    -0.06940000
opls_567-141    C    0.78438000    0.76121006    0.54383836    -0.06940000
opls_567-142    C    0.71562005    0.26121006    0.45615894    -0.06930000
opls_567-143    C    0.21562005    0.76121006    0.45615894    -0.06940000
opls_543-144    C    0.69341003    0.75198994    0.56746858    0.13050000
opls_543-145    C    0.19341003    0.25198994    0.56746858    0.13050000
opls_543-146    C    0.30659002    0.75198994    0.43252872    0.13050000
opls_543-147    C    0.80659002    0.25198994    0.43252872    0.13050000
opls_543-148    C    0.30659002    0.24801006    0.43252872    0.13050000
opls_543-149    C    0.80659002    0.74801006    0.43252872    0.13050000
opls_543-150    C    0.69341003    0.24801006    0.56746858    0.13050000
opls_543-151    C    0.19341003    0.74801006    0.56746858    0.13050000
opls_716-152    C    0.67119995    0.73941006    0.55797811    -0.23120000
opls_716-153    C    0.17119995    0.23941006    0.55797811    -0.23120000
opls_716-154    C    0.32879991    0.73941006    0.44201919    -0.23120000
opls_716-155    C    0.82879991    0.23941006    0.44201919    -0.23120000
opls_716-156    C    0.32879991    0.26058994    0.44201919    -0.23120000
opls_716-157    C    0.82879991    0.76058994    0.44201919    -0.23120000
opls_716-158    C    0.67119995    0.26058994    0.55797811    -0.23120000
opls_716-159    C    0.17119995    0.76058994    0.55797811    -0.23120000
opls_234-160    C    0.72311006    0.22461006    0.71453980    0.41650000
opls_234-161    C    0.22311006    0.72461006    0.71453980    0.41620000
opls_234-162    C    0.27688994    0.22461006    0.28546020    0.41650000
opls_234-163    C    0.77688994    0.72461006    0.28546020    0.41620000
opls_234-164    C    0.27688994    0.77538994    0.28546020    0.41660000
opls_234-165    C    0.77688994    0.27538994    0.28546020    0.41650000
opls_234-166    C    0.72311006    0.77538994    0.71453980    0.41650000
opls_234-167    C    0.22311006    0.27538994    0.71453980    0.41660000
opls_716-168    C    0.73717006    0.24698994    0.53313961    -0.07200000
opls_716-169    C    0.23717006    0.74698994    0.53313961    -0.07200000
opls_716-170    C    0.26282994    0.24698994    0.46686039    -0.07200000
opls_716-171    C    0.76282994    0.74698994    0.46686039    -0.07200000
opls_716-172    C    0.26282994    0.75301006    0.46686039    -0.07200000
opls_716-173    C    0.76282994    0.25301006    0.46686039    -0.07200000
opls_716-174    C    0.73717006    0.75301006    0.53313961    -0.07200000
opls_716-175    C    0.23717006    0.25301006    0.53313961    -0.07200000
opls_245-176    C    0.67537001    0.20815996    0.90999865    -0.05560000
opls_245-177    C    0.17537001    0.70815996    0.90999865    -0.05570000
opls_245-178    C    0.32463004    0.20815996    0.08999865    -0.05560000
opls_245-179    C    0.82463004    0.70815996    0.08999865    -0.05570000
opls_245-180    C    0.32463004    0.79184004    0.08999865    -0.05560000
opls_245-181    C    0.82463004    0.29184004    0.08999865    -0.05570000
opls_245-182    C    0.67537001    0.79184004    0.90999865    -0.05560000
opls_245-183    C    0.17537001    0.29184004    0.90999865    -0.05570000
opls_136-184    C    0.68517001    0.18291993    0.00879038    -0.19240000
opls_136-185    C    0.18517001    0.68291993    0.00879038    -0.19270000
opls_136-186    C    0.31482999    0.18291993    0.99120962    -0.19240000
opls_136-187    C    0.81482999    0.68291993    0.99120962    -0.19260000
opls_136-188    C    0.31482999    0.81708007    0.99120962    -0.19240000
opls_136-189    C    0.81482999    0.31708007    0.99120962    -0.19260000
opls_136-190    C    0.68517001    0.81708007    0.00879038    -0.19240000
opls_136-191    C    0.18517001    0.31708007    0.00879038    -0.19270000
opls_136-192    C    0.66235001    0.16478994    0.14810109    -0.12690000
opls_136-193    C    0.16233997    0.66478007    0.14810109    -0.12690000
opls_136-194    C    0.33764999    0.16478994    0.85189891    -0.12670000
opls_136-195    C    0.83766003    0.66478007    0.85189891    -0.12690000
opls_136-196    C    0.33764999    0.83521006    0.85189891    -0.12690000
opls_136-197    C    0.83766003    0.33521993    0.85189891    -0.12690000
opls_136-198    C    0.66235001    0.83521006    0.14810109    -0.12690000
opls_136-199    C    0.16233997    0.33521993    0.14810109    -0.12690000
opls_135-200    C    0.67267002    0.13980000    0.24517097    -0.41580000
opls_135-201    C    0.17267002    0.63980000    0.24517097    -0.41580000
opls_135-202    C    0.32732998    0.13980000    0.75482903    -0.41590000
opls_135-203    C    0.82732998    0.63980000    0.75482903    -0.41590000
opls_135-204    C    0.32732998    0.86020000    0.75482903    -0.41590000
opls_135-205    C    0.82732998    0.36020000    0.75482903    -0.41590000
opls_135-206    C    0.67267002    0.86020000    0.24517097    -0.41590000
opls_135-207    C    0.17267002    0.36020000    0.24517097    -0.41590000
opls_700-208    C    0.48650996    0.50000000    0.49591837    -0.00440000
opls_700-209    C    0.98650996    0.00000000    0.49591837    -0.00440000
opls_700-210    C    0.51348990    0.50000000    0.50407893    -0.00470000
opls_700-211    C    0.01348990    1.00000000    0.50407893    -0.00470000
opls_145-212    C    0.43341002    0.50000000    0.48842006    -0.11180000
opls_145-213    C    0.93341002    1.00000000    0.48842006    -0.11180000
opls_145-214    C    0.56659000    0.50000000    0.51156913    -0.11180000
opls_145-215    C    0.06659000    0.00000000    0.51156913    -0.11170000
opls_146-216    H    0.47803004    0.56311993    0.51093932    0.09110000
opls_146-217    H    0.97803004    0.06311993    0.51093932    0.09110000
opls_146-218    H    0.52196996    0.56311993    0.48906068    0.09110000
opls_146-219    H    0.02196996    0.06311993    0.48906068    0.09110000
opls_146-220    H    0.52196996    0.43688007    0.48906068    0.09120000
opls_146-221    H    0.02196996    0.93688007    0.48906068    0.09110000
opls_146-222    H    0.47803004    0.43688007    0.51093932    0.09110000
opls_146-223    H    0.97803004    0.93688007    0.51093932    0.09110000
opls_146-224    H    0.54374000    0.56537002    0.91175835    0.10080000
opls_146-225    H    0.04374000    0.06537002    0.91175835    0.10080000
opls_146-226    H    0.45626005    0.56537002    0.08823895    0.10080000
opls_146-227    H    0.95626005    0.06537002    0.08823895    0.10080000
opls_146-228    H    0.45626005    0.43462998    0.08823895    0.10090000
opls_146-229    H    0.95626005    0.93462998    0.08823895    0.10080000
opls_146-230    H    0.54374000    0.43462998    0.91175835    0.10090000
opls_146-231    H    0.04374000    0.93462998    0.91175835    0.10080000
opls_146-232    H    0.56884003    0.60354004    0.84197865    0.11130000
opls_146-233    H    0.06884003    0.10354004    0.84197865    0.11130000
opls_146-234    H    0.43116002    0.60354004    0.15801865    0.11290000
opls_146-235    H    0.93116002    0.10354004    0.15801865    0.11290000
opls_146-236    H    0.43116002    0.39645996    0.15801865    0.11290000
opls_146-237    H    0.93116002    0.89645996    0.15801865    0.11290000
opls_146-238    H    0.56884003    0.39645996    0.84197865    0.11130000
opls_146-239    H    0.06884003    0.89645996    0.84197865    0.11130000
opls_146-240    H    0.62863999    0.57000000    0.99210974    0.11300000
opls_146-241    H    0.12863999    0.07001006    0.99210974    0.11280000
opls_146-242    H    0.37136006    0.57000000    0.00788755    0.11280000
opls_146-243    H    0.87136006    0.07001006    0.00788755    0.11280000
opls_146-244    H    0.37136006    0.42998994    0.00788755    0.11280000
opls_146-245    H    0.87136006    0.92998994    0.00788755    0.11280000
opls_146-246    H    0.62863999    0.42998994    0.99210974    0.11280000
opls_146-247    H    0.12863999    0.92998994    0.99210974    0.11280000
opls_146-248    H    0.60241004    0.53148007    0.05063117    0.10610000
opls_146-249    H    0.10241004    0.03148007    0.05063117    0.10930000
opls_146-250    H    0.39758996    0.53148007    0.94936883    0.10610000
opls_146-251    H    0.89758996    0.03148007    0.94936883    0.10930000
opls_146-252    H    0.39758996    0.46851993    0.94936883    0.10610000
opls_146-253    H    0.89758996    0.96851993    0.94936883    0.10610000
opls_146-254    H    0.60241004    0.46851993    0.05063117    0.10610000
opls_146-255    H    0.10241004    0.96851993    0.05063117    0.10610000
opls_144-256    H    0.58571002    0.63754004    0.55821868    0.11160000
opls_144-257    H    0.08571002    0.13754004    0.55821868    0.11170000
opls_144-258    H    0.41429003    0.63754004    0.44177862    0.11570000
opls_144-259    H    0.91429003    0.13754004    0.44177862    0.11570000
opls_144-260    H    0.41429003    0.36245996    0.44177862    0.11570000
opls_144-261    H    0.91429003    0.86245996    0.44177862    0.11580000
opls_144-262    H    0.58571002    0.36245996    0.55821868    0.11160000
opls_144-263    H    0.08571002    0.86245996    0.55821868    0.11170000
opls_146-264    H    0.59473999    0.67977002    0.73862954    0.10940000
opls_146-265    H    0.09473999    0.17977002    0.73862954    0.10930000
opls_146-266    H    0.40526001    0.67977002    0.26137046    0.10930000
opls_146-267    H    0.90526001    0.17977002    0.26137046    0.10930000
opls_146-268    H    0.40526001    0.32022998    0.26137046    0.10930000
opls_146-269    H    0.90526001    0.82022998    0.26137046    0.10930000
opls_146-270    H    0.59473999    0.32022998    0.73862954    0.10930000
opls_146-271    H    0.09473999    0.82022998    0.73862954    0.10930000
opls_146-272    H    0.62465009    0.71415996    0.74226787    0.11350000
opls_146-273    H    0.12465009    0.21415996    0.74226787    0.11350000
opls_146-274    H    0.37534996    0.71415996    0.25772942    0.11360000
opls_146-275    H    0.87534996    0.21415996    0.25772942    0.11350000
opls_146-276    H    0.37534996    0.28584004    0.25772942    0.11350000
opls_146-277    H    0.87534996    0.78584004    0.25772942    0.11360000
opls_146-278    H    0.62465009    0.28584004    0.74226787    0.11350000
opls_146-279    H    0.12465009    0.78584004    0.74226787    0.11350000
opls_146-280    H    0.68775005    0.67218007    0.04510069    0.10970000
opls_146-281    H    0.18775005    0.17218007    0.04510069    0.10970000
opls_146-282    H    0.31224995    0.67218007    0.95489931    0.10970000
opls_146-283    H    0.81224995    0.17218007    0.95489931    0.10970000
opls_146-284    H    0.31224995    0.32781993    0.95489931    0.10970000
opls_146-285    H    0.81224995    0.82781993    0.95489931    0.10970000
opls_146-286    H    0.68775005    0.32781993    0.04510069    0.10970000
opls_146-287    H    0.18775005    0.82781993    0.04510069    0.10980000
opls_146-288    H    0.65763003    0.63735996    0.05571023    0.10750000
opls_146-289    H    0.15763003    0.13735996    0.05571023    0.10880000
opls_146-290    H    0.34236997    0.63735996    0.94428977    0.10750000
opls_146-291    H    0.84236997    0.13735996    0.94428977    0.10740000
opls_146-292    H    0.34236997    0.36264004    0.94428977    0.10750000
opls_146-293    H    0.84236997    0.86264004    0.94428977    0.11180000
opls_146-294    H    0.65763003    0.36264004    0.05571023    0.10750000
opls_146-295    H    0.15763003    0.86264004    0.05571023    0.10760000
opls_547-296    H    0.65167002    0.74698994    0.64856873    0.11630000
opls_547-297    H    0.15167002    0.24698994    0.64856873    0.11630000
opls_547-298    H    0.34833004    0.74698994    0.35142857    0.11630000
opls_547-299    H    0.84833004    0.24698994    0.35142857    0.11630000
opls_547-300    H    0.34833004    0.25301006    0.35142857    0.11630000
opls_547-301    H    0.84833004    0.75301006    0.35142857    0.11630000
opls_547-302    H    0.65167002    0.25301006    0.64856873    0.11640000
opls_547-303    H    0.15167002    0.75301006    0.64856873    0.11630000
opls_140-304    H    0.66223001    0.20501993    0.73097986    0.09640000
opls_140-305    H    0.16221997    0.70501993    0.73097986    0.05020000
opls_140-306    H    0.33777001    0.20501993    0.26900933    0.09640000
opls_140-307    H    0.83778003    0.70501993    0.26902014    0.05020000
opls_140-308    H    0.33777001    0.79498007    0.26900933    0.09640000
opls_140-309    H    0.83778003    0.29498007    0.26902014    0.05020000
opls_140-310    H    0.66223001    0.79498007    0.73097986    0.09640000
opls_140-311    H    0.16221997    0.29498007    0.73097986    0.05020000
opls_140-312    H    0.66335997    0.21754004    0.15527774    0.05200000
opls_140-313    H    0.16335997    0.71754004    0.15527774    0.05200000
opls_140-314    H    0.33664008    0.21754004    0.84471956    0.05210000
opls_140-315    H    0.83664008    0.71754004    0.84471956    0.05200000
opls_140-316    H    0.33664008    0.78245996    0.84471956    0.05200000
opls_140-317    H    0.83664008    0.28245996    0.84471956    0.05200000
opls_140-318    H    0.66335997    0.78245996    0.15527774    0.05200000
opls_140-319    H    0.16335997    0.28245996    0.15527774    0.05200000
opls_140-320    H    0.69597991    0.18591993    0.21795107    0.08430000
opls_140-321    H    0.19597991    0.68591993    0.21795107    0.08430000
opls_140-322    H    0.30401990    0.18591993    0.78204893    0.08430000
opls_140-323    H    0.80401990    0.68591993    0.78204893    0.08430000
opls_140-324    H    0.30401990    0.81408007    0.78204893    0.08430000
opls_140-325    H    0.80401990    0.31408007    0.78204893    0.08430000
opls_140-326    H    0.69597991    0.81408007    0.21795107    0.08430000
opls_140-327    H    0.19597991    0.31408007    0.21795107    0.08430000
opls_140-328    H    0.69970009    0.17490000    0.77235032    0.07950000
opls_140-329    H    0.19969005    0.67490000    0.77235032    0.11050000
opls_140-330    H    0.30029991    0.17490000    0.22764968    0.07950000
opls_140-331    H    0.80030995    0.67490000    0.22764968    0.11050000
opls_140-332    H    0.30029991    0.82510000    0.22764968    0.07950000
opls_140-333    H    0.80030995    0.32510000    0.22764968    0.11050000
opls_140-334    H    0.69970009    0.82510000    0.77235032    0.07950000
opls_140-335    H    0.19969005    0.32510000    0.77235032    0.11050000
opls_140-336    H    0.65133002    0.16168994    0.94108123    0.11050000
opls_140-337    H    0.15133002    0.66168994    0.94108123    0.10040000
opls_140-338    H    0.34866998    0.16168994    0.05891877    0.11050000
opls_140-339    H    0.84866999    0.66168994    0.05890796    0.10040000
opls_140-340    H    0.34866998    0.83831006    0.05891877    0.11050000
opls_140-341    H    0.84866999    0.33831006    0.05890796    0.10040000
opls_140-342    H    0.65133002    0.83831006    0.94108123    0.11050000
opls_140-343    H    0.15133002    0.33831006    0.94108123    0.10040000
opls_140-344    H    0.64813005    0.17288994    0.38717935    0.07950000
opls_140-345    H    0.14813005    0.67288994    0.38717935    0.07950000
opls_140-346    H    0.35186995    0.17288994    0.61282065    0.07950000
opls_140-347    H    0.85186995    0.67288994    0.61282065    0.07950000
opls_140-348    H    0.35186995    0.82711006    0.61282065    0.07950000
opls_140-349    H    0.85186995    0.32711006    0.61282065    0.07950000
opls_140-350    H    0.64813005    0.82711006    0.38717935    0.07950000
opls_140-351    H    0.14813005    0.32711006    0.38717935    0.07960000
opls_140-352    H    0.68612001    0.14248007    0.42140830    0.16070000
opls_140-353    H    0.18612001    0.64248007    0.42140830    0.16090000
opls_140-354    H    0.31388004    0.14248007    0.57858900    0.16070000
opls_140-355    H    0.81388004    0.64248007    0.57858900    0.16070000
opls_140-356    H    0.31388004    0.85751993    0.57858900    0.16070000
opls_140-357    H    0.81388004    0.35751993    0.57858900    0.16080000
opls_140-358    H    0.68612001    0.85751993    0.42140830    0.16070000
opls_140-359    H    0.18612001    0.35751993    0.42140830    0.16070000
opls_140-360    H    0.68377007    0.12975996    0.99992972    0.16090000
opls_140-361    H    0.18377007    0.62975996    0.99992972    0.16080000
opls_140-362    H    0.31622998    0.12975996    0.00006758    0.16080000
opls_140-363    H    0.81622998    0.62975996    0.00006758    0.16080000
opls_140-364    H    0.31622998    0.87024004    0.00006758    0.16080000
opls_140-365    H    0.81622998    0.37024004    0.00006758    0.16080000
opls_140-366    H    0.68377007    0.87024004    0.99992972    0.16080000
opls_140-367    H    0.18377007    0.37024004    0.99992972    0.16080000
opls_140-368    H    0.65612998    0.12775996    0.38907961    0.15810000
opls_140-369    H    0.15612998    0.62775996    0.38907961    0.15810000
opls_140-370    H    0.34387002    0.12775996    0.61092039    0.15810000
opls_140-371    H    0.84387002    0.62775996    0.61092039    0.15820000
opls_140-372    H    0.34387002    0.87224004    0.61092039    0.15810000
opls_140-373    H    0.84387002    0.37224004    0.61092039    0.15810000
opls_140-374    H    0.65612998    0.87224004    0.38907961    0.15810000
opls_140-375    H    0.15612998    0.37224004    0.38907961    0.15810000
opls_146-376    H    0.41309994    0.50000000    0.47764833    0.11180000
opls_146-377    H    0.91309994    1.00000000    0.47764833    0.11180000
opls_146-378    H    0.58689992    0.50000000    0.52234897    0.11180000
opls_146-379    H    0.08689992    0.00000000    0.52234897    0.11180000
opls_750-380    N    0.61547998    0.61232998    0.34318962    -0.37160000
opls_750-381    N    0.11547998    0.11232998    0.34318962    -0.37160000
opls_750-382    N    0.38452002    0.61232998    0.65681038    -0.37150000
opls_750-383    N    0.88452002    0.11232998    0.65681038    -0.37160000
opls_750-384    N    0.38452002    0.38767002    0.65681038    -0.37160000
opls_750-385    N    0.88452002    0.88767002    0.65681038    -0.37150000
opls_750-386    N    0.61547998    0.38767002    0.34318962    -0.37160000
opls_750-387    N    0.11547998    0.88767002    0.34318962    -0.37160000
opls_542-388    N    0.69682991    0.22485009    0.72679822    -0.12830000
opls_542-389    N    0.19682991    0.72484991    0.72679822    -0.12830000
opls_542-390    N    0.30316995    0.22485009    0.27319908    -0.12830000
opls_542-391    N    0.80316995    0.72484991    0.27319908    -0.12830000
opls_542-392    N    0.30316995    0.77514991    0.27319908    -0.12830000
opls_542-393    N    0.80316995    0.27515009    0.27319908    -0.12830000
opls_542-394    N    0.69682991    0.77514991    0.72679822    -0.12820000
opls_542-395    N    0.19682991    0.27515009    0.72679822    -0.12830000
opls_633-396    S    0.71120993    0.70908994    0.33303960    0.07280000
opls_633-397    S    0.21120993    0.20908994    0.33303960    0.07280000
opls_633-398    S    0.28878988    0.70908994    0.66696040    0.07280000
opls_633-399    S    0.78878988    0.20908994    0.66696040    0.07280000
opls_633-400    S    0.28878988    0.29091006    0.66696040    0.07280000
opls_633-401    S    0.78878988    0.79091006    0.66696040    0.07280000
opls_633-402    S    0.71120993    0.29091006    0.33303960    0.07280000
opls_633-403    S    0.21120993    0.79091006    0.33303960    0.07280000
opls_236-404    O    0.73280004    0.20880000    0.86597919    -0.38890000
opls_236-405    O    0.23280004    0.70878994    0.86597919    -0.39770000
opls_236-406    O    0.26719996    0.20880000    0.13402081    -0.38910000
opls_236-407    O    0.76719996    0.70878994    0.13402081    -0.39760000
opls_236-408    O    0.26719996    0.79120000    0.13402081    -0.38910000
opls_236-409    O    0.76719996    0.29120000    0.13402081    -0.38900000
opls_236-410    O    0.73280004    0.79120000    0.86597919    -0.38910000
opls_236-411    O    0.23280004    0.29120000    0.86597919    -0.38910000
