#======================================================================
# Crystal Data Generated By AuToFF
#----------------------------------------------------------------------

data_AuToFF_phase_1

_cell_length_a                         5.0000
_cell_length_b                         25.0000
_cell_length_c                         25.0000
_cell_angle_alpha                      90.00
_cell_angle_beta                       90.00
_cell_angle_gamma                      90.00
_symmetry_space_group_name_H-M_alt     'P 1'
_symmetry_space_group_IT_number        1

loop_
_space_group_symop_operation_xyz
   'x, y, z'

loop_
   _atom_site_label
   _atom_site_type_symbol
   _atom_site_fract_x
   _atom_site_fract_y
   _atom_site_fract_z
   _atom_site_charge
opls_145-0    C    0.50000000    0.78083000    0.36249000    -0.11140000
opls_145-1    C    0.50000000    0.78083000    0.63751000    -0.11140000
opls_145-2    C    0.50000000    0.21916000    0.63751000    -0.11140000
opls_145-3    C    0.50000000    0.21916000    0.36249000    -0.11140000
opls_145-4    C    0.50000000    0.63751000    0.78084000    -0.11140000
opls_145-5    C    0.50000000    0.63751000    0.21916000    -0.11140000
opls_145-6    C    0.50000000    0.36248000    0.21916000    -0.11140000
opls_145-7    C    0.50000000    0.36248000    0.78084000    -0.11140000
opls_145-8    C    0.50000000    0.72695000    0.38006000    0.07600000
opls_145-9    C    0.50000000    0.72695000    0.61995000    0.07600000
opls_145-10    C    0.50000000    0.27304000    0.61995000    0.07600000
opls_145-11    C    0.50000000    0.27304000    0.38006000    0.07600000
opls_145-12    C    0.50000000    0.61994000    0.72695000    0.07600000
opls_145-13    C    0.50000000    0.61994000    0.27305000    0.07600000
opls_145-14    C    0.50000000    0.38005000    0.27305000    0.07600000
opls_145-15    C    0.50000000    0.38005000    0.72695000    0.07600000
opls_145-16    C    0.50000000    0.71475000    0.43532000    -0.06530000
opls_145-17    C    0.50000000    0.71475000    0.56469000    -0.06530000
opls_145-18    C    0.50000000    0.28524000    0.56469000    -0.06530000
opls_145-19    C    0.50000000    0.28524000    0.43532000    -0.06530000
opls_145-20    C    0.50000000    0.56468000    0.71476000    -0.06530000
opls_145-21    C    0.50000000    0.56468000    0.28524000    -0.06530000
opls_145-22    C    0.50000000    0.43531000    0.28524000    -0.06530000
opls_145-23    C    0.50000000    0.43531000    0.71476000    -0.06530000
opls_700-24    C    0.50000000    0.75730000    0.47215000    0.02260000
opls_700-25    C    0.50000000    0.75730000    0.52785000    0.02260000
opls_700-26    C    0.50000000    0.24269000    0.52785000    0.02260000
opls_700-27    C    0.50000000    0.24269000    0.47215000    0.02260000
opls_700-28    C    0.50000000    0.52784000    0.75730000    0.02260000
opls_700-29    C    0.50000000    0.52784000    0.24270000    0.02260000
opls_700-30    C    0.50000000    0.47215000    0.24270000    0.02260000
opls_700-31    C    0.50000000    0.47215000    0.75730000    0.02260000
opls_700-32    C    0.50000000    0.81050000    0.45473000    0.01360000
opls_700-33    C    0.50000000    0.81050000    0.54527000    0.01360000
opls_700-34    C    0.50000000    0.18949000    0.54527000    0.01360000
opls_700-35    C    0.50000000    0.18949000    0.45473000    0.01360000
opls_700-36    C    0.50000000    0.54527000    0.81050000    0.01510000
opls_700-37    C    0.50000000    0.54527000    0.18950000    0.01510000
opls_700-38    C    0.50000000    0.45472000    0.18950000    0.02370000
opls_700-39    C    0.50000000    0.45472000    0.81050000    0.02370000
opls_145-40    C    0.50000000    0.82292000    0.39992000    -0.11160000
opls_145-41    C    0.50000000    0.82292000    0.60008000    -0.11160000
opls_145-42    C    0.50000000    0.17708000    0.60008000    -0.21780000
opls_145-43    C    0.50000000    0.17708000    0.39992000    -0.21780000
opls_145-44    C    0.50000000    0.60007000    0.82292000    -0.21780000
opls_145-45    C    0.50000000    0.60007000    0.17708000    -0.21780000
opls_145-46    C    0.50000000    0.39992000    0.17708000    -0.21780000
opls_145-47    C    0.50000000    0.39992000    0.82292000    -0.21780000
opls_261-48    C    0.50000000    0.68892000    0.34481000    -0.00750000
opls_261-49    C    0.50000000    0.68892000    0.65519000    -0.00750000
opls_261-50    C    0.50000000    0.31107000    0.65519000    -0.00750000
opls_261-51    C    0.50000000    0.31107000    0.34481000    -0.00750000
opls_261-52    C    0.50000000    0.65519000    0.68893000    -0.00750000
opls_261-53    C    0.50000000    0.65519000    0.31108000    -0.00750000
opls_261-54    C    0.50000000    0.34481000    0.31108000    -0.00750000
opls_261-55    C    0.50000000    0.34481000    0.68893000    -0.00750000
opls_701-56    C    0.50000000    0.49999000    0.84771000    0.01590000
opls_701-57    C    0.50000000    0.49999000    0.15229000    0.01590000
opls_701-58    C    0.50000000    0.14479000    0.50000000    0.01100000
opls_701-59    C    0.50000000    0.85518000    0.50000000    0.01100000
opls_136-60    C    0.29591000    0.48790000    0.10149000    0.05140000
opls_136-61    C    0.70409000    0.48790000    0.89851000    0.05140000
opls_136-62    C    0.29591000    0.51209000    0.89851000    0.05140000
opls_136-63    C    0.70409000    0.51209000    0.10149000    0.05140000
opls_136-64    C    0.29144000    0.09738000    0.51340000    0.03280000
opls_136-65    C    0.70856000    0.09738000    0.48660000    0.03280000
opls_136-66    C    0.29127000    0.90259000    0.48677000    0.03280000
opls_136-67    C    0.70873000    0.90259000    0.51323000    0.03280000
opls_297-68    C    0.18026000    0.65247000    0.03238000    -0.22630000
opls_297-69    C    0.91858000    0.64998000    0.94775000    -0.22630000
opls_297-70    C    0.06066000    0.95292000    0.65361000    -0.22630000
opls_297-71    C    0.93287000    0.04896000    0.65369000    -0.22630000
opls_146-72    H    0.50000000    0.79004000    0.31783000    0.03550000
opls_146-73    H    0.50000000    0.79004000    0.68217000    0.03550000
opls_146-74    H    0.50000000    0.20995000    0.68217000    0.03550000
opls_146-75    H    0.50000000    0.20995000    0.31783000    0.03550000
opls_146-76    H    0.50000000    0.68217000    0.79005000    0.03550000
opls_146-77    H    0.50000000    0.68217000    0.20995000    0.03550000
opls_146-78    H    0.50000000    0.31782000    0.20995000    0.03550000
opls_146-79    H    0.50000000    0.31782000    0.79005000    0.03550000
opls_146-80    H    0.50000000    0.67128000    0.44907000    0.03550000
opls_146-81    H    0.50000000    0.67128000    0.55093000    0.03550000
opls_146-82    H    0.50000000    0.32871000    0.55093000    0.03550000
opls_146-83    H    0.50000000    0.32871000    0.44907000    0.03550000
opls_146-84    H    0.50000000    0.55093000    0.67128000    0.03550000
opls_146-85    H    0.50000000    0.55093000    0.32872000    0.03550000
opls_146-86    H    0.50000000    0.44907000    0.32872000    0.03550000
opls_146-87    H    0.50000000    0.44907000    0.67128000    0.03550000
opls_146-88    H    0.50000000    0.86620000    0.38557000    0.03550000
opls_146-89    H    0.50000000    0.86620000    0.61443000    0.03550000
opls_146-90    H    0.50218000    0.13841000    0.61341000    0.21110000
opls_146-91    H    0.49782000    0.13841000    0.38659000    0.21120000
opls_146-92    H    0.50207000    0.61338000    0.86161000    0.21110000
opls_146-93    H    0.49793000    0.61338000    0.13839000    0.21110000
opls_146-94    H    0.50207000    0.38661000    0.13839000    0.21120000
opls_146-95    H    0.49793000    0.38661000    0.86161000    0.21120000
opls_140-96    H    0.16272000    0.45769000    0.11684000    0.07540000
opls_140-97    H    0.83728000    0.45769000    0.88316000    0.07540000
opls_140-98    H    0.20830000    0.52666000    0.09482000    0.07670000
opls_140-99    H    0.79170000    0.52666000    0.90518000    0.07670000
opls_140-100    H    0.20830000    0.47333000    0.90518000    0.07670000
opls_140-101    H    0.79170000    0.47333000    0.09482000    0.07670000
opls_140-102    H    0.16272000    0.54230000    0.88316000    0.07540000
opls_140-103    H    0.83728000    0.54230000    0.11684000    0.07540000
opls_140-104    H    0.20394000    0.09071000    0.47475000    0.08120000
opls_140-105    H    0.79606000    0.09071000    0.52525000    0.08120000
opls_140-106    H    0.16295000    0.11430000    0.54371000    0.08350000
opls_140-107    H    0.83705000    0.11430000    0.45629000    0.08350000
opls_140-108    H    0.20442000    0.90927000    0.52549000    0.08120000
opls_140-109    H    0.79558000    0.90927000    0.47451000    0.08120000
opls_140-110    H    0.16264000    0.88559000    0.45655000    0.08340000
opls_140-111    H    0.83736000    0.88559000    0.54345000    0.08340000
opls_310-112    H    0.24933000    0.60682000    0.96661000    0.24260000
opls_310-113    H    0.31051000    0.67108000    0.95717000    0.24420000
opls_140-114    H    0.11131000    0.69268000    0.04234000    0.11780000
opls_140-115    H    0.38407000    0.64770000    0.04705000    0.09410000
opls_140-116    H    0.05259000    0.62301000    0.05202000    0.10710000
opls_140-117    H    0.77896000    0.61996000    0.96272000    0.10720000
opls_140-118    H    0.94493000    0.64408000    0.90488000    0.09490000
opls_140-119    H    0.83626000    0.68987000    0.95441000    0.11290000
opls_310-120    H    0.83894000    0.99218000    0.59773000    0.23900000
opls_310-121    H    0.15384000    0.00974000    0.59765000    0.24510000
opls_140-122    H    0.24331000    0.95908000    0.67672000    0.11770000
opls_140-123    H    0.09120000    0.91946000    0.62647000    0.08890000
opls_140-124    H    0.89635000    0.94292000    0.68057000    0.11300000
opls_140-125    H    0.75065000    0.04276000    0.67693000    0.11290000
opls_140-126    H    0.90171000    0.08243000    0.62660000    0.08850000
opls_140-127    H    0.09764000    0.05896000    0.68055000    0.10990000
opls_180-128    O    0.34412000    0.47166000    0.04521000    -0.42590000
opls_180-129    O    0.65588000    0.47166000    0.95479000    -0.42580000
opls_180-130    O    0.34412000    0.52834000    0.95479000    -0.42540000
opls_180-131    O    0.65588000    0.52834000    0.04521000    -0.42540000
opls_180-132    O    0.34334000    0.04275000    0.52979000    -0.42290000
opls_180-133    O    0.65666000    0.04275000    0.47021000    -0.42290000
opls_180-134    O    0.34276000    0.95722000    0.47033000    -0.42290000
opls_180-135    O    0.65724000    0.95722000    0.52967000    -0.42290000
MOF2_B_3-136    B    0.50000000    0.49999000    0.00000000    0.61340000
MOF2_B_3-137    B    0.50000000    0.99999000    0.50000000    0.62160000
opls_309-138    N    0.18091000    0.64429000    0.97400000    -0.32560000
opls_309-139    N    0.99656000    0.00096000    0.62189000    -0.32660000
