#======================================================================
# Crystal Data Generated By AuToFF
#----------------------------------------------------------------------

data_AuToFF_phase_1

_cell_length_a                         36.5346
_cell_length_b                         36.5346
_cell_length_c                         4.0541
_cell_angle_alpha                      90.00
_cell_angle_beta                       90.00
_cell_angle_gamma                      120.00
_symmetry_space_group_name_H-M_alt     'P 1'
_symmetry_space_group_IT_number        1

loop_
_space_group_symop_operation_xyz
   'x, y, z'

loop_
   _atom_site_label
   _atom_site_type_symbol
   _atom_site_fract_x
   _atom_site_fract_y
   _atom_site_fract_z
   _atom_site_charge
opls_236-0    O    0.09756994    0.60018003    0.87274118    -0.40740000
opls_236-1    O    0.39982004    0.49739016    0.87274118    -0.40740000
opls_236-2    O    0.50261018    0.90243013    0.87274118    -0.40740000
opls_236-3    O    0.90243006    0.39981997    0.87274118    -0.40740000
opls_236-4    O    0.60018012    0.50261015    0.87274118    -0.40740000
opls_236-5    O    0.49738982    0.09756987    0.87274118    -0.40740000
opls_145-6    C    0.45750996    0.47214987    0.84658001    -0.20790000
opls_145-7    C    0.52784992    0.98535994    0.84658001    -0.20790000
opls_145-8    C    0.01463997    0.54248988    0.84658001    -0.20790000
opls_145-9    C    0.54249004    0.52785013    0.84658001    -0.20790000
opls_145-10    C    0.47215008    0.01464006    0.84658001    -0.20790000
opls_145-11    C    0.98536003    0.45751012    0.84658001    -0.20790000
opls_145-12    C    0.47055002    0.51408017    0.84564022    0.00190000
opls_145-13    C    0.48592011    0.95647014    0.84564022    0.00190000
opls_145-14    C    0.04353003    0.52945001    0.84564022    0.00190000
opls_145-15    C    0.52945014    0.48592015    0.84564022    0.00190000
opls_145-16    C    0.51407989    0.04352986    0.84564022    0.00190000
opls_145-17    C    0.95646997    0.47054999    0.84564022    0.00190000
opls_145-18    C    0.51261001    0.54209006    0.83116105    -0.20790000
opls_145-19    C    0.45791010    0.97052013    0.83116105    -0.20790000
opls_145-20    C    0.02948005    0.48739013    0.83116105    -0.20790000
opls_145-21    C    0.48738999    0.45790994    0.83116105    -0.20790000
opls_145-22    C    0.54208990    0.02947987    0.83116105    -0.20790000
opls_145-23    C    0.97051995    0.51260987    0.83116105    -0.20790000
opls_235-24    C    0.44016988    0.52918989    0.82469105    0.32300000
opls_235-25    C    0.47081005    0.91098010    0.82469105    0.32300000
opls_235-26    C    0.08902007    0.55983001    0.82469105    0.32300000
opls_235-27    C    0.55983012    0.47081011    0.82469105    0.32300000
opls_235-28    C    0.52918995    0.08901990    0.82469105    0.32300000
opls_235-29    C    0.91097993    0.44016999    0.82469105    0.32300000
opls_145-30    C    0.37708002    0.69022996    0.06144890    -0.13700000
opls_145-31    C    0.30977008    0.68685005    0.06144890    -0.13700000
opls_145-32    C    0.31314990    0.62291999    0.06144890    -0.13700000
opls_145-33    C    0.62291998    0.30977004    0.06144890    -0.13700000
opls_145-34    C    0.69022992    0.31314995    0.06144890    -0.13700000
opls_145-35    C    0.68685010    0.37708001    0.06144890    -0.13700000
opls_145-36    C    0.35518000    0.71118989    0.06202116    0.08850000
opls_145-37    C    0.28880998    0.64398991    0.06202116    0.08850000
opls_145-38    C    0.35600987    0.64481988    0.06202116    0.08850000
opls_145-39    C    0.64482000    0.28881011    0.06202116    0.08850000
opls_145-40    C    0.71119002    0.35601009    0.06202116    0.08850000
opls_145-41    C    0.64399013    0.35518012    0.06202116    0.08850000
opls_916-42    C    0.84330013    0.42582006    0.06936928    0.19120000
opls_916-43    C    0.57417986    0.41747996    0.06936928    0.19120000
opls_916-44    C    0.58252001    0.15669998    0.06936928    0.19120000
opls_916-45    C    0.15669987    0.57417994    0.06936928    0.19120000
opls_916-46    C    0.42582014    0.58252004    0.06936928    0.19120000
opls_916-47    C    0.41747999    0.84330002    0.06936928    0.19120000
opls_700-48    C    0.75693016    0.38009013    0.06424114    0.08400000
opls_700-49    C    0.61990994    0.37684012    0.06424114    0.08400000
opls_700-50    C    0.62316007    0.24307006    0.06424114    0.08400000
opls_700-51    C    0.24307000    0.61991018    0.06424114    0.08400000
opls_700-52    C    0.38009006    0.62315988    0.06424114    0.08400000
opls_700-53    C    0.37683993    0.75692994    0.06424114    0.08400000
opls_145-54    C    0.82281002    0.38625988    0.21231099    -0.21420000
opls_145-55    C    0.61374006    0.43654987    0.21231099    -0.21420000
opls_145-56    C    0.56345004    0.17718993    0.21231099    -0.21420000
opls_145-57    C    0.17718998    0.61374012    0.21231099    -0.21420000
opls_145-58    C    0.38625994    0.56345013    0.21231099    -0.21420000
opls_145-59    C    0.43654996    0.82281007    0.21231099    -0.21420000
opls_145-60    C    0.82077001    0.44270002    0.92667916    -0.21390000
opls_145-61    C    0.55729983    0.37806990    0.92667916    -0.21380000
opls_145-62    C    0.62193016    0.17923008    0.92667916    -0.21380000
opls_145-63    C    0.17922999    0.55729998    0.92667916    -0.21390000
opls_145-64    C    0.44270017    0.62193010    0.92667916    -0.21390000
opls_145-65    C    0.37806984    0.82076992    0.92667916    -0.21390000
opls_145-66    C    0.78010002    0.36382016    0.21471103    -0.20670000
opls_145-67    C    0.63617994    0.41627989    0.21471103    -0.20670000
opls_145-68    C    0.58372004    0.21989994    0.21471103    -0.20670000
opls_145-69    C    0.21990014    0.63618015    0.21471103    -0.20670000
opls_145-70    C    0.36382006    0.58372011    0.21471103    -0.20670000
opls_145-71    C    0.41627996    0.78010006    0.21471103    -0.20670000
opls_145-72    C    0.77807998    0.41986998    0.91770060    -0.20670000
opls_145-73    C    0.58013013    0.35821016    0.91770060    -0.20670000
opls_145-74    C    0.64178988    0.22191986    0.91770060    -0.20670000
opls_145-75    C    0.22192002    0.58013002    0.91770060    -0.20670000
opls_145-76    C    0.41987002    0.64179016    0.91770060    -0.20660000
opls_145-77    C    0.35821012    0.77808014    0.91770060    -0.20660000
opls_238-78    N    0.44942016    0.56253008    0.07669026    -0.44310000
opls_238-79    N    0.43747008    0.88688994    0.07669026    -0.44310000
opls_238-80    N    0.11311003    0.55057998    0.07669026    -0.44300000
opls_238-81    N    0.55057984    0.43746992    0.07669026    -0.44310000
opls_238-82    N    0.56252992    0.11311006    0.07669026    -0.44310000
opls_238-83    N    0.88688997    0.44942002    0.07669026    -0.44300000
opls_146-84    H    0.42534021    0.44935017    0.84382970    0.22560000
opls_146-85    H    0.55065019    0.97599012    0.84382970    0.22560000
opls_146-86    H    0.02401004    0.57466003    0.84382970    0.22560000
opls_146-87    H    0.57465995    0.55065014    0.84382970    0.22560000
opls_146-88    H    0.44934981    0.02400988    0.84382970    0.22560000
opls_146-89    H    0.97598996    0.42533997    0.84382970    0.22560000
opls_146-90    H    0.52384994    0.57455004    0.80591993    0.22540000
opls_146-91    H    0.42545010    0.94930008    0.80591993    0.22550000
opls_146-92    H    0.05069996    0.47614989    0.80591993    0.22540000
opls_146-93    H    0.47615006    0.42544996    0.80591993    0.22540000
opls_146-94    H    0.57454990    0.05069992    0.80591993    0.22540000
opls_146-95    H    0.94930004    0.52385011    0.80591993    0.22540000
opls_241-96    H    0.47873005    0.57924000    0.18643102    0.26810000
opls_241-97    H    0.42075996    0.89949017    0.18643102    0.24640000
opls_241-98    H    0.10051015    0.52127014    0.18643102    0.26810000
opls_241-99    H    0.52126995    0.42076000    0.18643102    0.26810000
opls_241-100    H    0.57924020    0.10051015    0.18643102    0.24640000
opls_241-101    H    0.89949001    0.47873017    0.18643102    0.24640000
opls_146-102    H    0.41003990    0.70730998    0.06050911    0.22550000
opls_146-103    H    0.29268994    0.70273000    0.06050911    0.22550000
opls_146-104    H    0.29726989    0.58996002    0.06050911    0.22550000
opls_146-105    H    0.58996010    0.29269002    0.06050911    0.22550000
opls_146-106    H    0.70731006    0.29727000    0.06050911    0.22550000
opls_146-107    H    0.70273011    0.41003998    0.06050911    0.22550000
opls_146-108    H    0.83987003    0.37323992    0.33199970    0.22460000
opls_146-109    H    0.62676009    0.46662994    0.33199970    0.22460000
opls_146-110    H    0.53337016    0.16013014    0.33199970    0.22460000
opls_146-111    H    0.16012997    0.62676008    0.33199970    0.22470000
opls_146-112    H    0.37323991    0.53337006    0.33199970    0.22460000
opls_146-113    H    0.46663000    0.83987018    0.33199970    0.22460000
opls_146-114    H    0.83640008    0.47322004    0.81347031    0.22010000
opls_146-115    H    0.52678011    0.36318015    0.81347031    0.22010000
opls_146-116    H    0.63681996    0.16360013    0.81347031    0.22010000
opls_146-117    H    0.16359992    0.52677996    0.81347031    0.22010000
opls_146-118    H    0.47322004    0.63682017    0.81347031    0.22010000
opls_146-119    H    0.36318020    0.83640019    0.81347031    0.22010000
opls_146-120    H    0.76555007    0.33421007    0.34400977    0.08890000
opls_146-121    H    0.66578988    0.43134000    0.34400977    0.08880000
opls_146-122    H    0.56866004    0.23444993    0.34400977    0.08880000
opls_146-123    H    0.23444993    0.66578993    0.34400977    0.08880000
opls_146-124    H    0.33421012    0.56866000    0.34400977    0.08880000
opls_146-125    H    0.43133996    0.76555007    0.34400977    0.08880000
opls_146-126    H    0.76200990    0.43332989    0.78775067    0.08880000
opls_146-127    H    0.56667014    0.32868003    0.78775067    0.08880000
opls_146-128    H    0.67131996    0.23799008    0.78775067    0.08880000
opls_146-129    H    0.23799010    0.56667011    0.78775067    0.08880000
opls_146-130    H    0.43332986    0.67131997    0.78775067    0.08880000
opls_146-131    H    0.32868004    0.76200992    0.78775067    0.08880000
