#======================================================================
# Crystal Data Generated By AuToFF
#----------------------------------------------------------------------

data_AuToFF_phase_1

_cell_length_a                         37.1396
_cell_length_b                         36.9167
_cell_length_c                         4.3145
_cell_angle_alpha                      90.29
_cell_angle_beta                       91.00
_cell_angle_gamma                      95.20
_symmetry_space_group_name_H-M_alt     'P 1'
_symmetry_space_group_IT_number        1

loop_
_space_group_symop_operation_xyz
   'x, y, z'

loop_
   _atom_site_label
   _atom_site_type_symbol
   _atom_site_fract_x
   _atom_site_fract_y
   _atom_site_fract_z
   _atom_site_charge
opls_145-0    C    0.45375007    0.99404001    0.49926978    0.06840000
opls_145-1    C    0.46587995    0.96554996    0.37123934    -0.06950000
opls_145-2    C    0.44087006    0.93468999    0.40094906    -0.11020000
opls_145-3    C    0.40287991    0.93166011    0.55890944    0.20720000
opls_145-4    C    0.39043986    0.95976988    0.68725051    -0.14980000
opls_145-5    C    0.41563008    0.99052995    0.65916119    -0.08500000
opls_142-6    C    0.27705998    0.75208012    0.54481030    0.13010000
opls_716-7    C    0.53585009    0.99860014    0.48833031    -0.15540000
opls_716-8    C    0.57309993    0.01312006    0.44645945    -0.11100000
opls_716-9    C    0.12852991    0.62996004    0.45183993    -0.17390000
opls_716-10    C    0.09257006    0.61693001    0.43526035    -0.17270000
opls_716-11    C    0.22876008    0.56138995    0.45938095    -0.17260000
opls_716-12    C    0.22687994    0.52630992    0.46136068    -0.17280000
opls_142-13    C    0.76938999    0.25872985    0.55198969    0.11920000
opls_141-14    C    0.17934009    0.47761995    0.41180043    -0.05750000
opls_507-15    C    0.14279007    0.46381992    0.39972043    0.20870000
opls_507-16    C    0.19211000    0.51296987    0.42875092    0.15060000
opls_507-17    C    0.19514990    0.56839005    0.42391985    0.16530000
opls_716-18    C    0.12949006    0.42807000    0.36542073    -0.17400000
opls_716-19    C    0.09425994    0.42495988    0.36740972    -0.17300000
opls_507-20    C    0.08481005    0.45875009    0.40143124    0.20860000
opls_141-21    C    0.04932003    0.46729996    0.41693982    -0.05670000
opls_141-22    C    0.18470005    0.60179012    0.41429942    -0.05850000
opls_141-23    C    0.04640011    0.50259009    0.39659089    0.21160000
opls_145-24    C    0.21103006    0.63350998    0.43510040    0.07900000
opls_543-25    C    0.14869989    0.60419991    0.38566998    0.12090000
opls_261-26    C    0.01523990    0.51671000    0.50158099    -0.06510000
opls_142-27    C    0.02826000    0.55243993    0.47571017    -0.14610000
opls_141-28    C    0.06632987    0.55735011    0.35162991    0.16310000
opls_543-29    C    0.09391003    0.58462003    0.34946937    0.12160000
opls_700-30    C    0.20595007    0.45364993    0.40125970    0.10410000
opls_145-31    C    0.24212984    0.46481000    0.16009078    -0.08150000
opls_145-32    C    0.26713010    0.44258998    0.15016899    -0.11180000
opls_145-33    C    0.25637991    0.40868009    0.37874095    0.23110000
opls_145-34    C    0.22022005    0.39718999    0.61943928    -0.10830000
opls_145-35    C    0.19535007    0.41954999    0.63095133    -0.08850000
opls_145-36    C    0.19813006    0.66228001    0.54816007    -0.16750000
opls_145-37    C    0.22261999    0.69227009    0.55373064    -0.11170000
opls_145-38    C    0.26089989    0.69417003    0.44540932    0.22300000
opls_145-39    C    0.27413994    0.66584011    0.33202975    -0.17330000
opls_145-40    C    0.24948988    0.63597987    0.32590049    -0.09710000
opls_145-41    C    0.30467990    0.78289010    0.53608933    -0.01090000
opls_145-42    C    0.34246989    0.78292004    0.41922091    -0.17990000
opls_166-43    C    0.36951999    0.81229999    0.40074970    0.23940000
opls_145-44    C    0.35808006    0.84202994    0.50217908    -0.04680000
opls_145-45    C    0.32028997    0.84197992    0.62015096    -0.17990000
opls_166-46    C    0.29322992    0.81255991    0.63921099    0.23870000
opls_142-47    C    0.38582993    0.87321000    0.48029088    0.13530000
opls_141-48    C    0.48318010    0.14917996    0.54601112    -0.05690000
opls_507-49    C    0.47093991    0.11412994    0.51724953    0.20830000
opls_543-50    C    0.52000996    0.16346997    0.54725134    0.17760000
opls_716-51    C    0.53187997    0.19685994    0.59482954    -0.17390000
opls_716-52    C    0.56914993    0.20093985    0.56967040    -0.17340000
opls_543-53    C    0.57891005    0.16998004    0.50576066    0.20590000
opls_716-54    C    0.43376003    0.09932991    0.49782092    -0.17350000
opls_716-55    C    0.43280995    0.06621997    0.47681131    -0.17270000
opls_507-56    C    0.46942010    0.05964981    0.48096084    0.20820000
opls_141-57    C    0.48091007    0.02708991    0.46481939    -0.05310000
opls_141-58    C    0.61525005    0.16242992    0.46506975    -0.05480000
opls_543-59    C    0.51876005    0.02669989    0.41721105    0.20470000
opls_145-60    C    0.64730012    0.18912989    0.48265079    0.04940000
opls_543-61    C    0.62026014    0.12895002    0.40836026    0.12120000
opls_543-62    C    0.57587014    0.04890993    0.34770988    0.16590000
opls_716-63    C    0.64908995    0.11189986    0.44019111    -0.17270000
opls_716-64    C    0.63763003    0.07745992    0.40661004    -0.17270000
opls_543-65    C    0.60309997    0.07647004    0.34617988    0.12030000
opls_700-66    C    0.45586994    0.17246986    0.57011086    0.10410000
opls_145-67    C    0.46563000    0.20674010    0.34525029    -0.08840000
opls_145-68    C    0.44022989    0.22854996    0.36581945    -0.10660000
opls_145-69    C    0.40433000    0.21634994    0.61065108    0.23120000
opls_145-70    C    0.39436994    0.18222981    0.83444065    -0.11170000
opls_145-71    C    0.41994010    0.16052999    0.81542930    -0.07910000
opls_145-72    C    0.67894996    0.17910002    0.56103057    -0.16870000
opls_145-73    C    0.70928006    0.20394983    0.56317024    -0.15690000
opls_145-74    C    0.70864004    0.23971005    0.48635059    0.24550000
opls_145-75    C    0.67744012    0.25010004    0.40763004    -0.17400000
opls_145-76    C    0.64724996    0.22510001    0.40469987    -0.11180000
opls_261-77    C    0.38488997    0.27011990    0.44367069    0.23120000
opls_145-78    C    0.80039994    0.28654992    0.54146982    -0.01310000
opls_145-79    C    0.79782995    0.32174004    0.45643919    -0.20220000
opls_166-80    C    0.82734995    0.34893994    0.43663967    0.25320000
opls_145-81    C    0.85992011    0.34031999    0.50388062    0.00210000
opls_145-82    C    0.86247012    0.30511995    0.59012133    -0.20140000
opls_166-83    C    0.83289999    0.27791000    0.61060936    0.25330000
opls_700-84    C    0.35684996    0.29174000    0.47259918    -0.00500000
opls_142-85    C    0.32078001    0.27761006    0.70464145    -0.06420000
opls_261-86    C    0.29349005    0.29783002    0.73680148    0.01550000
opls_700-87    C    0.30292007    0.33278993    0.53028926    -0.00500000
opls_142-88    C    0.33899998    0.34688989    0.29851127    -0.06440000
opls_261-89    C    0.36628991    0.32669994    0.26646019    0.01620000
opls_261-90    C    0.27495998    0.35450000    0.55638958    0.23980000
opls_418-91    C    0.41030012    0.37599992    0.83529142    -0.16790000
opls_418-92    C    0.24945998    0.24854995    0.16804907    -0.16800000
opls_181-93    C    0.79155991    0.39126003    0.28545068    -0.16730000
opls_181-94    C    0.24553002    0.84289008    0.85742998    -0.16270000
opls_181-95    C    0.41720002    0.78193005    0.18313111    -0.16270000
opls_181-96    C    0.86857013    0.23556981    0.76423938    -0.17140000
opls_142-97    C    0.89133988    0.36828987    0.47956066    0.05150000
opls_145-98    C    0.95263009    0.38812992    0.52450078    0.24360000
opls_145-99    C    0.98347002    0.37845988    0.62032019    -0.13980000
opls_145-100    C    0.01462007    0.40400992    0.58797007    -0.09710000
opls_145-101    C    0.01582990    0.43975005    0.45600106    0.08070000
opls_145-102    C    0.98459987    0.44910995    0.36045056    -0.10640000
opls_145-103    C    0.95331999    0.42371999    0.39468999    -0.11170000
opls_750-104    N    0.37641002    0.90073000    0.58385995    -0.15580000
opls_750-105    N    0.28685008    0.72456006    0.44494105    -0.15720000
opls_542-106    N    0.54364004    0.05639990    0.32252987    -0.25470000
opls_542-107    N    0.17277012    0.53851010    0.40975117    -0.14950000
opls_542-108    N    0.12748003    0.57793004    0.31399899    -0.25030000
opls_750-109    N    0.73930008    0.26595995    0.48313992    -0.15580000
opls_542-110    N    0.11501998    0.48121006    0.41998127    -0.16010000
opls_238-111    N    0.07649001    0.52773990    0.29724091    -0.22830000
opls_542-112    N    0.54855998    0.14706989    0.49678933    -0.21830000
opls_542-113    N    0.49132008    0.08936000    0.50572125    -0.11540000
opls_542-114    N    0.59371004    0.10731986    0.34071131    -0.24810000
opls_750-115    N    0.37753998    0.23796999    0.63539064    -0.28450000
opls_750-116    N    0.28267999    0.38656996    0.36162124    -0.28090000
opls_750-117    N    0.92137003    0.36138996    0.55284973    -0.17780000
opls_420-118    O    0.40268991    0.34033012    0.03429970    -0.11950000
opls_420-119    O    0.25707998    0.28421985    0.96882056    -0.11950000
opls_179-120    O    0.82546011    0.38450007    0.34898024    -0.11990000
opls_179-121    O    0.83479999    0.24235988    0.69752002    -0.12010000
opls_179-122    O    0.25508993    0.81188003    0.75763027    -0.15610000
opls_179-123    O    0.40766004    0.81299011    0.28150978    -0.15150000
opls_146-124    H    0.04230010    0.39670003    0.67213138    0.04690000
opls_146-125    H    0.49339001    0.96801009    0.25625096    0.04680000
opls_146-126    H    0.44730006    0.90733998    0.30251012    0.04680000
opls_146-127    H    0.36280003    0.95697988    0.79992072    0.04680000
opls_146-128    H    0.40946996    0.01779992    0.76093135    0.04690000
opls_144-129    H    0.24845007    0.75254010    0.63535123    0.02760000
opls_545-130    H    0.53335999    0.08202011    0.23977106    0.27420000
opls_547-131    H    0.59606993    0.99530992    0.49438075    0.04680000
opls_547-132    H    0.13643987    0.65962993    0.51664913    0.04680000
opls_547-133    H    0.07077996    0.63553988    0.49503911    0.04680000
opls_547-134    H    0.25611008    0.57790992    0.48575946    0.04680000
opls_547-135    H    0.25259006    0.51184003    0.48811936    0.04680000
opls_545-136    H    0.13785997    0.55241009    0.23070004    0.27190000
opls_144-137    H    0.77422998    0.22996988    0.62679948    0.02760000
opls_547-138    H    0.14887988    0.40605005    0.34025926    0.04680000
opls_547-139    H    0.07869993    0.39699996    0.34257048    0.04680000
opls_144-140    H    0.01074002    0.57486005    0.54481958    0.04680000
opls_910-141    H    0.10092986    0.51708999    0.19956001    0.27180000
opls_146-142    H    0.16902000    0.66070986    0.63023038    0.04680000
opls_146-143    H    0.21456994    0.71923986    0.64773028    0.04680000
opls_146-144    H    0.30331988    0.66780997    0.25151029    0.04680000
opls_146-145    H    0.26093996    0.61097999    0.22409093    0.04680000
opls_146-146    H    0.35257983    0.75662992    0.32957016    0.04680000
opls_146-147    H    0.31020009    0.86826001    0.71017957    0.04680000
opls_144-148    H    0.41388001    0.87289014    0.37780905    0.02760000
opls_547-149    H    0.51219005    0.21791992    0.64833996    0.04690000
opls_547-150    H    0.58452998    0.22882988    0.60617932    0.04680000
opls_545-151    H    0.54618002    0.11728994    0.45266057    0.27180000
opls_547-152    H    0.41117003    0.11825998    0.50350972    0.04680000
opls_547-153    H    0.40568000    0.04913989    0.45995123    0.04680000
opls_547-154    H    0.67641016    0.12784008    0.48664964    0.04690000
opls_547-155    H    0.65741998    0.05574995    0.43239973    0.04680000
opls_545-156    H    0.56712992    0.11763009    0.28829971    0.27420000
opls_146-157    H    0.68185999    0.14967986    0.62857984    0.04680000
opls_146-158    H    0.73682998    0.19488999    0.63204087    0.04680000
opls_146-159    H    0.67493000    0.27963000    0.34133953    0.04680000
opls_146-160    H    0.61969006    0.23394990    0.33346933    0.04680000
opls_146-161    H    0.77031993    0.33137001    0.39410117    0.04680000
opls_146-162    H    0.88997013    0.29549987    0.65292067    0.04680000
opls_144-163    H    0.32040001    0.25058998    0.83177011    0.04680000
opls_144-164    H    0.33940005    0.37390006    0.17122961    0.04680000
opls_419-165    H    0.40597993    0.36902987    0.57882951    0.06440000
opls_419-166    H    0.43939002    0.38787981    0.87776037    0.06450000
opls_419-167    H    0.27491002    0.24327010    0.30581120    0.06440000
opls_419-168    H    0.24142998    0.22445014    0.00729993    0.06440000
opls_185-169    H    0.77271989    0.36559985    0.32401118    0.06440000
opls_185-170    H    0.78921004    0.40006995    0.03358107    0.06440000
opls_185-171    H    0.22584000    0.83792998    0.05571963    0.06440000
opls_185-172    H    0.23189006    0.85728998    0.66051964    0.06440000
opls_185-173    H    0.40916999    0.77811002    0.92802070    0.06440000
opls_185-174    H    0.40304989    0.75897007    0.32390918    0.06440000
opls_185-175    H    0.88589009    0.24050993    0.55036001    0.06440000
opls_185-176    H    0.86898004    0.20603998    0.83926013    0.06440000
opls_144-177    H    0.88707987    0.39663986    0.39060073    0.02760000
opls_146-178    H    0.98524011    0.35043997    0.72625147    0.04680000
opls_146-179    H    0.98251005    0.47697005    0.25227065    0.04680000
opls_146-180    H    0.92559990    0.43129990    0.31420994    0.04690000
opls_547-181    H    0.52954988    0.96925001    0.56530064    0.04680000
opls_146-182    H    0.24321004    0.49085014    0.01832053    0.04680000
opls_146-183    H    0.29152985    0.44881999    0.99636974    0.04680000
opls_146-184    H    0.21913990    0.37094990    0.75843931    0.04680000
opls_146-185    H    0.17105000    0.41344000    0.78621104    0.04680000
opls_146-186    H    0.49138004    0.20826992    0.20411986    0.04680000
opls_146-187    H    0.44183004    0.25475990    0.22620047    0.04690000
opls_146-188    H    0.36845016    0.18068977    0.97332014    0.04680000
opls_146-189    H    0.41930013    0.13426995    0.95396106    0.04680000
opls_419-190    H    0.39101012    0.39677997    0.90590068    0.06440000
opls_419-191    H    0.22655013    0.25223001    0.33451947    0.06440000
opls_185-192    H    0.78367987    0.41389985    0.44428964    0.06440000
opls_185-193    H    0.27049001    0.86058995    0.94341105    0.06440000
opls_185-194    H    0.44773990    0.78151012    0.21129924    0.06440000
opls_185-195    H    0.87983016    0.25433003    0.96037082    0.06440000
