#======================================================================
# Crystal Data Generated By AuToFF
#----------------------------------------------------------------------

data_AuToFF_phase_1

_cell_length_a                         30.0314
_cell_length_b                         30.0314
_cell_length_c                         7.0764
_cell_angle_alpha                      90.00
_cell_angle_beta                       90.00
_cell_angle_gamma                      120.00
_symmetry_space_group_name_H-M_alt     'P 1'
_symmetry_space_group_IT_number        1

loop_
_space_group_symop_operation_xyz
   'x, y, z'

loop_
   _atom_site_label
   _atom_site_type_symbol
   _atom_site_fract_x
   _atom_site_fract_y
   _atom_site_fract_z
   _atom_site_charge
opls_700-0    C    0.27947011    0.63425005    0.62939065    0.06070000
opls_145-1    C    0.30167015    0.68831004    0.62746029    -0.15950000
opls_142-2    C    0.22385009    0.59955990    0.64551043    0.01480000
opls_234-3    C    0.10540994    0.58770007    0.78944944    0.47790000
opls_700-4    C    0.05200987    0.54092978    0.80507037    -0.17480000
opls_166-5    C    0.04021007    0.48889994    0.81368069    0.22000000
opls_145-6    C    0.98895984    0.44912980    0.81048980    -0.22160000
opls_182-7    C    0.92693984    0.57221981    0.84472048    0.01240000
opls_142-8    C    0.56717000    0.69068970    0.89959019    -0.04710000
opls_143-9    C    0.58060988    0.73101004    0.78611017    -0.25210000
opls_700-10    C    0.36570999    0.64489987    0.62959980    0.06050000
opls_145-11    C    0.31163993    0.61290005    0.62799022    -0.15930000
opls_142-12    C    0.40048018    0.62418006    0.64567011    0.01700000
opls_234-13    C    0.41247988    0.51776994    0.78939009    0.48040000
opls_700-14    C    0.45917992    0.51116004    0.80495026    -0.17490000
opls_166-15    C    0.51128011    0.55141003    0.81343056    0.21990000
opls_145-16    C    0.55091975    0.53984972    0.81043044    -0.22690000
opls_182-17    C    0.42724001    0.35459990    0.84481940    0.01270000
opls_142-18    C    0.30928987    0.87528972    0.89873947    -0.06640000
opls_143-19    C    0.26921010    0.84823992    0.78427025    -0.25200000
opls_700-20    C    0.35527979    0.72055978    0.62913063    0.06050000
opls_145-21    C    0.38715998    0.69848000    0.62773020    -0.15980000
opls_142-22    C    0.37615998    0.77613969    0.64505963    0.01310000
opls_234-23    C    0.48256981    0.89479990    0.79026058    0.48070000
opls_700-24    C    0.48901986    0.94807974    0.80504070    -0.17480000
opls_166-25    C    0.44860981    0.95958968    0.81329066    0.21810000
opls_145-26    C    0.46003022    0.01076017    0.81035979    -0.22160000
opls_182-27    C    0.64547977    0.07349981    0.84536064    0.01070000
opls_142-28    C    0.12435985    0.43392984    0.89710022    -0.04790000
opls_143-29    C    0.15160988    0.42171974    0.78067944    -0.25210000
opls_700-30    C    0.72052989    0.36574995    0.62939065    0.06100000
opls_145-31    C    0.69832985    0.31168996    0.62746029    -0.15950000
opls_142-32    C    0.77614991    0.40045009    0.64551043    0.01490000
opls_234-33    C    0.89459007    0.41230992    0.78944944    0.47800000
opls_700-34    C    0.94799993    0.45907984    0.80507037    -0.17490000
opls_166-35    C    0.95978993    0.51111006    0.81368069    0.22000000
opls_145-36    C    0.01103997    0.55086981    0.81048980    -0.22160000
opls_182-37    C    0.07305997    0.42777980    0.84472048    0.01240000
opls_142-38    C    0.43282980    0.30930992    0.89959019    -0.04710000
opls_143-39    C    0.41939012    0.26898996    0.78611017    -0.25210000
opls_700-40    C    0.63429001    0.35511013    0.62959980    0.06060000
opls_145-41    C    0.68836008    0.38710995    0.62799022    -0.15310000
opls_142-42    C    0.59952981    0.37581994    0.64567011    0.01200000
opls_234-43    C    0.58753011    0.48223006    0.78939009    0.48040000
opls_700-44    C    0.54083007    0.48884995    0.80495026    -0.17490000
opls_166-45    C    0.48871989    0.44858997    0.81343056    0.22260000
opls_145-46    C    0.44908005    0.46014989    0.81043044    -0.22210000
opls_182-47    C    0.57276978    0.64539972    0.84481940    0.01270000
opls_142-48    C    0.69070994    0.12471989    0.89873947    -0.06640000
opls_143-49    C    0.73078990    0.15176008    0.78427025    -0.25210000
opls_700-50    C    0.64472002    0.27944983    0.62913063    0.06050000
opls_145-51    C    0.61284002    0.30152000    0.62773020    -0.15980000
opls_142-52    C    0.62383983    0.22385993    0.64505963    0.01490000
opls_234-53    C    0.51743019    0.10520010    0.79026058    0.48050000
opls_700-54    C    0.51097995    0.05191987    0.80504070    -0.17490000
opls_166-55    C    0.55139998    0.04040994    0.81329066    0.21810000
opls_145-56    C    0.53997977    0.98923983    0.81035979    -0.22700000
opls_182-57    C    0.35452004    0.92649981    0.84536064    0.01150000
opls_142-58    C    0.87563996    0.56606977    0.89710022    -0.04790000
opls_143-59    C    0.84838993    0.57827988    0.78067944    -0.25200000
opls_700-60    C    0.36574982    0.72052979    0.12940054    0.06100000
opls_145-61    C    0.31168992    0.69833005    0.12746029    -0.15950000
opls_142-62    C    0.40044989    0.77614969    0.14551043    0.01490000
opls_234-63    C    0.41230993    0.89458996    0.28944944    0.47540000
opls_700-64    C    0.45907983    0.94799977    0.30508027    -0.17490000
opls_166-65    C    0.51111000    0.95979000    0.31368069    0.21990000
opls_145-66    C    0.55086991    0.01104008    0.31048980    -0.22160000
opls_182-67    C    0.42778013    0.07305994    0.34472048    0.01240000
opls_142-68    C    0.30931000    0.43282980    0.39959019    -0.05840000
opls_143-69    C    0.26899996    0.41939006    0.28611017    -0.25210000
opls_700-70    C    0.35510995    0.63429004    0.12959980    0.06050000
opls_145-71    C    0.38711008    0.68836003    0.12799022    -0.15310000
opls_142-72    C    0.37583001    0.59952991    0.14568001    0.01200000
opls_234-73    C    0.48222994    0.58752974    0.28939009    0.48040000
opls_700-74    C    0.48884994    0.54082981    0.30496015    -0.17480000
opls_166-75    C    0.44858990    0.48871999    0.31343056    0.22260000
opls_145-76    C    0.46014997    0.44907982    0.31043044    -0.22210000
opls_182-77    C    0.64539991    0.57277003    0.34481940    0.01290000
opls_142-78    C    0.12471978    0.69070969    0.39873947    -0.06640000
opls_143-79    C    0.15175980    0.73078973    0.28427025    -0.25210000
opls_700-80    C    0.27944987    0.64471992    0.12913063    0.06050000
opls_145-81    C    0.30152016    0.61284007    0.12773020    -0.15980000
opls_142-82    C    0.22385973    0.62383978    0.14505963    0.01490000
opls_234-83    C    0.10521003    0.51743005    0.29026058    0.48040000
opls_700-84    C    0.05192012    0.51098010    0.30504070    -0.17490000
opls_166-85    C    0.04040995    0.55140003    0.31329066    0.22260000
opls_145-86    C    0.98923989    0.53998007    0.31035979    -0.22700000
opls_182-87    C    0.92650009    0.35451992    0.34536064    0.01150000
opls_142-88    C    0.56607010    0.87564000    0.39710022    -0.04790000
opls_143-89    C    0.57828000    0.84838988    0.28067944    -0.25210000
opls_700-90    C    0.63424999    0.27946982    0.12940054    0.06070000
opls_145-91    C    0.68831008    0.30166995    0.12746029    -0.15950000
opls_142-92    C    0.59955991    0.22384993    0.14551043    0.01480000
opls_234-93    C    0.58770006    0.10541004    0.28944944    0.47790000
opls_700-94    C    0.54092997    0.05200985    0.30508027    -0.17490000
opls_166-95    C    0.48889999    0.04021000    0.31368069    0.21990000
opls_145-96    C    0.44913009    0.98895992    0.31048980    -0.22160000
opls_182-97    C    0.57221968    0.92693968    0.34472048    0.01240000
opls_142-98    C    0.69069980    0.56716982    0.39959019    -0.04710000
opls_143-99    C    0.73101003    0.58060994    0.28611017    -0.25210000
opls_700-100    C    0.64490004    0.36570996    0.12959980    0.06050000
opls_145-101    C    0.61289991    0.31163997    0.12799022    -0.15920000
opls_142-102    C    0.62417998    0.40048008    0.14568001    0.01700000
opls_234-103    C    0.51776987    0.41247987    0.28939009    0.48040000
opls_700-104    C    0.51115986    0.45917980    0.30496015    -0.17490000
opls_166-105    C    0.55141010    0.51128001    0.31343056    0.21990000
opls_145-106    C    0.53984984    0.55091980    0.31043044    -0.22690000
opls_182-107    C    0.35460009    0.42723997    0.34481940    0.01290000
opls_142-108    C    0.87529002    0.30928993    0.39873947    -0.06640000
opls_143-109    C    0.84824001    0.26920989    0.28427025    -0.25210000
opls_700-110    C    0.72056011    0.35528008    0.12913063    0.06050000
opls_145-111    C    0.69847984    0.38715993    0.12773020    -0.15980000
opls_142-112    C    0.77614008    0.37615984    0.14505963    0.01310000
opls_234-113    C    0.89479996    0.48256995    0.29026058    0.48070000
opls_700-114    C    0.94807988    0.48901990    0.30504070    -0.17490000
opls_166-115    C    0.95959005    0.44860996    0.31329066    0.21820000
opls_145-116    C    0.01076012    0.46002993    0.31035979    -0.22160000
opls_182-117    C    0.07349972    0.64547969    0.34536064    0.01070000
opls_142-118    C    0.43392990    0.12436000    0.39710022    -0.04790000
opls_143-119    C    0.42172000    0.15161012    0.28067944    -0.25200000
opls_750-120    N    0.19308991    0.61608984    0.69486038    -0.14560000
opls_238-121    N    0.14230987    0.57803995    0.71499067    -0.23610000
opls_750-122    N    0.38406987    0.57687992    0.69525041    -0.14740000
opls_238-123    N    0.42221007    0.56439990    0.71532983    -0.23470000
opls_750-124    N    0.42346006    0.80705984    0.69511051    -0.12750000
opls_238-125    N    0.43606999    0.85775970    0.71507970    -0.22080000
opls_750-126    N    0.80690990    0.38390977    0.69486038    -0.12180000
opls_238-127    N    0.85770013    0.42197004    0.71499067    -0.23600000
opls_750-128    N    0.61594012    0.42312008    0.69525041    -0.14020000
opls_238-129    N    0.57778993    0.43560010    0.71532983    -0.23260000
opls_750-130    N    0.57653975    0.19293978    0.69511051    -0.12750000
opls_238-131    N    0.56392982    0.14223991    0.71507970    -0.22080000
opls_750-132    N    0.38391007    0.80690988    0.19486038    -0.14560000
opls_238-133    N    0.42196972    0.85768972    0.21499067    -0.23610000
opls_750-134    N    0.42312009    0.61593989    0.19525041    -0.14760000
opls_238-135    N    0.43560013    0.57779003    0.21532983    -0.23260000
opls_750-136    N    0.19294013    0.57654003    0.19511051    -0.12750000
opls_238-137    N    0.14223993    0.56393004    0.21507970    -0.22080000
opls_750-138    N    0.61608993    0.19309012    0.19486038    -0.14560000
opls_238-139    N    0.57804007    0.14230989    0.21499067    -0.23610000
opls_750-140    N    0.57687992    0.38407011    0.19525041    -0.14760000
opls_238-141    N    0.56439987    0.42220997    0.21532983    -0.23470000
opls_750-142    N    0.80705987    0.42345997    0.19511051    -0.12750000
opls_238-143    N    0.85776007    0.43606996    0.21507970    -0.22070000
opls_236-144    O    0.11396004    0.63138977    0.83350998    -0.47090000
opls_179-145    O    0.91843980    0.51949980    0.82732039    -0.23100000
opls_236-146    O    0.36871992    0.48254996    0.83313973    -0.47220000
opls_179-147    O    0.48007977    0.39871985    0.82627042    -0.23190000
opls_236-148    O    0.51775988    0.88648975    0.83558024    -0.46890000
opls_179-149    O    0.60120989    0.08190992    0.82621955    -0.23110000
opls_236-150    O    0.88603977    0.36860984    0.83350998    -0.46870000
opls_179-151    O    0.08156001    0.48050981    0.82732039    -0.23160000
opls_236-152    O    0.63128008    0.51746004    0.83313973    -0.47230000
opls_179-153    O    0.51993002    0.60127976    0.82627042    -0.23210000
opls_236-154    O    0.48224991    0.11350986    0.83558024    -0.46830000
opls_179-155    O    0.39878991    0.91808969    0.82621955    -0.23090000
opls_236-156    O    0.36860983    0.88603989    0.33350998    -0.46870000
opls_179-157    O    0.48051010    0.08156003    0.32732039    -0.23160000
opls_236-158    O    0.51746000    0.63127981    0.33313973    -0.47230000
opls_179-159    O    0.60128012    0.51993005    0.32627042    -0.23200000
opls_236-160    O    0.11350993    0.48225005    0.33558024    -0.46510000
opls_179-161    O    0.91809002    0.39878983    0.32621955    -0.23100000
opls_236-162    O    0.63139017    0.11396011    0.33350998    -0.47090000
opls_179-163    O    0.51949989    0.91843997    0.32732039    -0.23090000
opls_236-164    O    0.48254980    0.36871981    0.33313973    -0.47220000
opls_179-165    O    0.39871989    0.48007994    0.32627042    -0.23200000
opls_236-166    O    0.88649008    0.51775995    0.33558024    -0.46880000
opls_179-167    O    0.08191978    0.60120978    0.32621955    -0.23100000
opls_146-168    H    0.27664991    0.70471002    0.62981036    0.12450000
opls_144-169    H    0.20963974    0.55846979    0.62234046    0.08500000
opls_910-170    H    0.13306988    0.54052990    0.70076027    0.26440000
opls_146-171    H    0.97912006    0.40920011    0.81085015    0.12590000
opls_185-172    H    0.94126994    0.59208988    0.70946950    0.08120000
opls_185-173    H    0.95556003    0.59220985    0.95594935    0.08330000
opls_144-174    H    0.55090001    0.68844000    0.03896049    0.11840000
opls_144-175    H    0.59612986    0.73289985    0.64586937    0.13790000
opls_144-176    H    0.57643003    0.76332977    0.82965067    0.13690000
opls_146-177    H    0.29519011    0.57143005    0.63077978    0.12020000
opls_144-178    H    0.44152995    0.65125985    0.62226980    0.07700000
opls_910-179    H    0.45971010    0.59281005    0.70082952    0.25840000
opls_146-180    H    0.59090999    0.56993974    0.81071025    0.12100000
opls_185-181    H    0.40727978    0.34876976    0.70965039    0.08350000
opls_185-182    H    0.40751005    0.36370980    0.95540953    0.08120000
opls_144-183    H    0.31139996    0.86109983    0.03791052    0.11870000
opls_144-184    H    0.26741986    0.86200994    0.64416935    0.13790000
opls_144-185    H    0.23695001    0.81147003    0.82690068    0.13800000
opls_146-186    H    0.42864003    0.72355002    0.63016930    0.11900000
opls_144-187    H    0.34923001    0.79019000    0.62129049    0.08120000
opls_910-188    H    0.40768991    0.86679001    0.70042960    0.24940000
opls_146-189    H    0.42985006    0.02042990    0.81073992    0.13000000
opls_185-190    H    0.65125996    0.05915996    0.71060002    0.08510000
opls_185-191    H    0.63649000    0.04485012    0.95670963    0.08290000
opls_144-192    H    0.13850009    0.44979998    0.03689023    0.11820000
opls_144-193    H    0.13796017    0.40674009    0.63984936    0.13810000
opls_144-194    H    0.18848981    0.42646982    0.82242948    0.13670000
opls_146-195    H    0.72335009    0.29528998    0.62981036    0.12460000
opls_144-196    H    0.79036007    0.44153982    0.62234046    0.08510000
opls_910-197    H    0.86693012    0.45948010    0.70076027    0.26440000
opls_146-198    H    0.02088993    0.59079989    0.81085015    0.12910000
opls_185-199    H    0.05874005    0.40791012    0.70946950    0.08520000
opls_185-200    H    0.04443978    0.40778977    0.95594935    0.08330000
opls_144-201    H    0.44909999    0.31156000    0.03896049    0.11840000
opls_144-202    H    0.40387994    0.26709976    0.64586937    0.13790000
opls_144-203    H    0.42356978    0.23666985    0.82965067    0.13690000
opls_146-204    H    0.70480989    0.42856995    0.63077978    0.12200000
opls_144-205    H    0.55846986    0.34874977    0.62226980    0.07810000
opls_910-206    H    0.54028990    0.40718995    0.70082952    0.25840000
opls_146-207    H    0.40908982    0.43005987    0.81071025    0.12100000
opls_185-208    H    0.59272002    0.65122985    0.70965039    0.08510000
opls_185-209    H    0.59248976    0.63628981    0.95540953    0.08340000
opls_144-210    H    0.68861003    0.13891016    0.03791052    0.11870000
opls_144-211    H    0.73259013    0.13799006    0.64416935    0.13800000
opls_144-212    H    0.76304999    0.18852997    0.82690068    0.13800000
opls_146-213    H    0.57136996    0.27644998    0.63016930    0.12000000
opls_144-214    H    0.65077998    0.20981000    0.62129049    0.07840000
opls_910-215    H    0.59231009    0.13320999    0.70042960    0.24950000
opls_146-216    H    0.57015973    0.97956972    0.81073992    0.13000000
opls_185-217    H    0.34873985    0.94083965    0.71060002    0.08510000
opls_185-218    H    0.36351000    0.95514988    0.95670963    0.08290000
opls_144-219    H    0.86149991    0.55020002    0.03689023    0.11820000
opls_144-220    H    0.86202984    0.59325991    0.63984936    0.13790000
opls_144-221    H    0.81151000    0.57352980    0.82242948    0.13670000
opls_146-222    H    0.29529000    0.72334970    0.12981036    0.12450000
opls_144-223    H    0.44154012    0.79035995    0.12234046    0.08500000
opls_910-224    H    0.45948009    0.86692997    0.20076027    0.26440000
opls_146-225    H    0.59079997    0.02089014    0.31085015    0.12910000
opls_185-226    H    0.40791017    0.05874009    0.20946950    0.08510000
opls_185-227    H    0.40779003    0.04443986    0.45594935    0.08330000
opls_144-228    H    0.31155984    0.44909981    0.53896049    0.11850000
opls_144-229    H    0.26710004    0.40387981    0.14586937    0.13780000
opls_144-230    H    0.23666992    0.42356994    0.32965067    0.13660000
opls_146-231    H    0.42856994    0.70480999    0.13077978    0.12200000
opls_144-232    H    0.34874980    0.55846979    0.12226980    0.07810000
opls_910-233    H    0.40718988    0.54028997    0.20082952    0.25840000
opls_146-234    H    0.43005984    0.40908976    0.31071025    0.12100000
opls_185-235    H    0.65122994    0.59272007    0.20965039    0.08510000
opls_185-236    H    0.63628997    0.59248976    0.45540953    0.08350000
opls_144-237    H    0.13890995    0.68860995    0.53791052    0.11870000
opls_144-238    H    0.13798993    0.73258995    0.14418066    0.13790000
opls_144-239    H    0.18852993    0.76304985    0.32690068    0.13800000
opls_146-240    H    0.27645004    0.57137007    0.13016930    0.12000000
opls_144-241    H    0.20980997    0.65077999    0.12129049    0.07840000
opls_910-242    H    0.13320979    0.59230982    0.20042960    0.24940000
opls_146-243    H    0.97957013    0.57016006    0.31073992    0.13000000
opls_185-244    H    0.94083998    0.34873977    0.21060002    0.08510000
opls_185-245    H    0.95514978    0.36350986    0.45671952    0.07910000
opls_144-246    H    0.55019983    0.86149971    0.53689023    0.11820000
opls_144-247    H    0.59326981    0.86202993    0.13984936    0.13800000
opls_144-248    H    0.57353007    0.81151001    0.32242948    0.13680000
opls_146-249    H    0.70470981    0.27664992    0.12981036    0.12450000
opls_144-250    H    0.55846987    0.20964005    0.12234046    0.08500000
opls_910-251    H    0.54052990    0.13307003    0.20076027    0.26440000
opls_146-252    H    0.40920004    0.97911985    0.31085015    0.12580000
opls_185-253    H    0.59208983    0.94126990    0.20946950    0.08120000
opls_185-254    H    0.59221977    0.95555976    0.45594935    0.08330000
opls_144-255    H    0.68843997    0.55089980    0.53896049    0.11860000
opls_144-256    H    0.73289977    0.59612980    0.14586937    0.13790000
opls_144-257    H    0.76333008    0.57643006    0.32965067    0.13690000
opls_146-258    H    0.57143006    0.29519001    0.13077978    0.12020000
opls_144-259    H    0.65125999    0.44152982    0.12226980    0.07700000
opls_910-260    H    0.59281012    0.45971003    0.20082952    0.25840000
opls_146-261    H    0.56993997    0.59090986    0.31071025    0.12100000
opls_185-262    H    0.34877006    0.40727993    0.20965039    0.08360000
opls_185-263    H    0.36370984    0.40750985    0.45540953    0.08120000
opls_144-264    H    0.86110004    0.31140005    0.53791052    0.11870000
opls_144-265    H    0.86201007    0.26742005    0.14418066    0.13790000
opls_144-266    H    0.81147007    0.23695015    0.32690068    0.13800000
opls_146-267    H    0.72354997    0.42863992    0.13016930    0.11900000
opls_144-268    H    0.79019003    0.34923000    0.12129049    0.08130000
opls_910-269    H    0.86679002    0.40768980    0.20042960    0.24940000
opls_146-270    H    0.02042987    0.42984994    0.31073992    0.13000000
opls_185-271    H    0.05915983    0.65125985    0.21060002    0.08510000
opls_185-272    H    0.04485003    0.63648975    0.45671952    0.07910000
opls_144-273    H    0.44979998    0.13849991    0.53689023    0.11820000
opls_144-274    H    0.40674018    0.13797007    0.13984936    0.13790000
opls_144-275    H    0.42646993    0.18848999    0.32242948    0.13670000
