#======================================================================
# Crystal Data Generated By AuToFF
#----------------------------------------------------------------------

data_AuToFF_phase_1

_cell_length_a                         36.3649
_cell_length_b                         36.3649
_cell_length_c                         3.8378
_cell_angle_alpha                      90.00
_cell_angle_beta                       90.00
_cell_angle_gamma                      120.00
_symmetry_space_group_name_H-M_alt     'P 1'
_symmetry_space_group_IT_number        1

loop_
_space_group_symop_operation_xyz
   'x, y, z'

loop_
   _atom_site_label
   _atom_site_type_symbol
   _atom_site_fract_x
   _atom_site_fract_y
   _atom_site_fract_z
   _atom_site_charge
opls_700-0    C    0.40709992    0.56020986    0.83585909    0.05110000
opls_145-1    C    0.42839997    0.60225009    0.95656105    -0.12470000
opls_145-2    C    0.41094990    0.62840993    0.90796029    -0.13300000
opls_700-3    C    0.37221002    0.61359994    0.72924071    0.06500000
opls_145-4    C    0.35192993    0.57186994    0.59614102    -0.13590000
opls_145-5    C    0.36891999    0.54535986    0.65313982    -0.12140000
opls_700-6    C    0.35230993    0.64086003    0.69695920    0.06150000
opls_145-7    C    0.37750000    0.68539002    0.69354057    -0.17740000
opls_142-8    C    0.46896009    0.89211007    0.91416958    0.01310000
opls_145-9    C    0.47721997    0.95624002    0.19027047    0.18430000
opls_145-10    C    0.45613997    0.47801999    0.20808015    -0.21480000
opls_700-11    C    0.47769989    0.45584993    0.31583980    0.00360000
opls_567-12    C    0.95497996    0.54705008    0.26544896    0.03100000
opls_716-13    C    0.91502014    0.53338003    0.40293918    -0.18700000
opls_567-14    C    0.93050008    0.59623001    0.15630048    0.05180000
opls_716-15    C    0.90079010    0.56109006    0.33558028    -0.18730000
opls_135-16    C    0.07647996    0.36818010    0.05196988    -0.45380000
opls_700-17    C    0.43978992    0.84689008    0.83585909    0.05110000
opls_145-18    C    0.39774999    0.82614987    0.95656105    -0.12470000
opls_145-19    C    0.37159007    0.78254008    0.90796029    -0.13300000
opls_700-20    C    0.38640000    0.75860995    0.72924071    0.06500000
opls_145-21    C    0.42812985    0.78005984    0.59614102    -0.13600000
opls_145-22    C    0.45464005    0.82356008    0.65313982    -0.12140000
opls_700-23    C    0.35914003    0.71144984    0.69695920    0.06150000
opls_145-24    C    0.31461009    0.69210994    0.69354057    -0.17740000
opls_142-25    C    0.10788998    0.57685011    0.91416958    0.01310000
opls_145-26    C    0.04376018    0.52098011    0.19027047    0.18430000
opls_145-27    C    0.52197986    0.97811985    0.20808015    -0.21480000
opls_700-28    C    0.54414989    0.02184998    0.31583980    0.00360000
opls_567-29    C    0.45294986    0.40792997    0.26544896    0.03100000
opls_716-30    C    0.46661999    0.38163994    0.40293918    -0.18700000
opls_567-31    C    0.40377002    0.33426995    0.15630048    0.05180000
opls_716-32    C    0.43891003    0.33970005    0.33558028    -0.18740000
opls_135-33    C    0.63181991    0.70829993    0.05196988    -0.45390000
opls_700-34    C    0.15311016    0.59290006    0.83585909    0.05110000
opls_145-35    C    0.17385003    0.57160004    0.95656105    -0.12470000
opls_145-36    C    0.21746002    0.58904999    0.90796029    -0.13300000
opls_700-37    C    0.24138982    0.62778979    0.72924071    0.06500000
opls_145-38    C    0.21994007    0.64806990    0.59614102    -0.13600000
opls_145-39    C    0.17643996    0.63108006    0.65313982    -0.12140000
opls_700-40    C    0.28854988    0.64768981    0.69695920    0.06150000
opls_145-41    C    0.30788991    0.62250003    0.69354057    -0.17740000
opls_142-42    C    0.42314993    0.53103982    0.91416958    0.01310000
opls_145-43    C    0.47901985    0.52277987    0.19027047    0.18430000
opls_145-44    C    0.02188001    0.54385984    0.20808015    -0.21480000
opls_700-45    C    0.97814995    0.52230008    0.31583980    0.00360000
opls_567-46    C    0.59206991    0.04501995    0.26544896    0.03100000
opls_716-47    C    0.61835988    0.08498003    0.40293918    -0.18700000
opls_567-48    C    0.66572990    0.06950004    0.15630048    0.05180000
opls_716-49    C    0.66029987    0.09920989    0.33558028    -0.18740000
opls_135-50    C    0.29170012    0.92351998    0.05196988    -0.45390000
opls_700-51    C    0.59289992    0.43978982    0.83585909    0.05110000
opls_145-52    C    0.57160003    0.39774991    0.95656105    -0.12470000
opls_145-53    C    0.58905010    0.37159007    0.90796029    -0.13300000
opls_700-54    C    0.62778998    0.38640006    0.72924071    0.06500000
opls_145-55    C    0.64807007    0.42813006    0.59614102    -0.13600000
opls_145-56    C    0.63107985    0.45463982    0.65313982    -0.12140000
opls_700-57    C    0.64769007    0.35913997    0.69695920    0.06150000
opls_145-58    C    0.62250000    0.31460998    0.69354057    -0.17740000
opls_142-59    C    0.53103991    0.10788993    0.91416958    0.01310000
opls_145-60    C    0.52278003    0.04375998    0.19027047    0.18430000
opls_145-61    C    0.54386003    0.52198001    0.20808015    -0.21480000
opls_700-62    C    0.52230011    0.54415007    0.31583980    0.00360000
opls_567-63    C    0.04502004    0.45294992    0.26544896    0.03100000
opls_716-64    C    0.08497986    0.46661997    0.40293918    -0.18700000
opls_567-65    C    0.06949992    0.40376999    0.15630048    0.05180000
opls_716-66    C    0.09920990    0.43890994    0.33558028    -0.18740000
opls_135-67    C    0.92352004    0.63181990    0.05196988    -0.45390000
opls_700-68    C    0.56021008    0.15310992    0.83585909    0.05110000
opls_145-69    C    0.60225001    0.17385013    0.95656105    -0.12470000
opls_145-70    C    0.62840993    0.21745992    0.90796029    -0.13300000
opls_700-71    C    0.61360000    0.24139005    0.72924071    0.06500000
opls_145-72    C    0.57186999    0.21993984    0.59614102    -0.13600000
opls_145-73    C    0.54535995    0.17643992    0.65313982    -0.12130000
opls_700-74    C    0.64085982    0.28854984    0.69695920    0.06150000
opls_145-75    C    0.68538991    0.30789006    0.69354057    -0.17740000
opls_142-76    C    0.89211002    0.42314989    0.91416958    0.01310000
opls_145-77    C    0.95623982    0.47901989    0.19027047    0.18430000
opls_145-78    C    0.47802014    0.02188015    0.20808015    -0.21480000
opls_700-79    C    0.45585011    0.97815002    0.31583980    0.00360000
opls_567-80    C    0.54705014    0.59207003    0.26544896    0.03100000
opls_716-81    C    0.53338001    0.61836006    0.40293918    -0.18700000
opls_567-82    C    0.59622998    0.66573005    0.15630048    0.05180000
opls_716-83    C    0.56108997    0.66029995    0.33558028    -0.18730000
opls_135-84    C    0.36818009    0.29170007    0.05196988    -0.45380000
opls_700-85    C    0.84688984    0.40709994    0.83585909    0.05110000
opls_145-86    C    0.82614997    0.42839996    0.95656105    -0.12470000
opls_145-87    C    0.78253998    0.41095001    0.90796029    -0.13300000
opls_700-88    C    0.75861003    0.37220989    0.72924071    0.06510000
opls_145-89    C    0.78005993    0.35193010    0.59614102    -0.13600000
opls_145-90    C    0.82356004    0.36891994    0.65313982    -0.12140000
opls_700-91    C    0.71144996    0.35230987    0.69695920    0.06150000
opls_145-92    C    0.69211009    0.37749997    0.69354057    -0.17740000
opls_142-93    C    0.57684991    0.46895986    0.91416958    0.01310000
opls_145-94    C    0.52097999    0.47721981    0.19027047    0.18430000
opls_145-95    C    0.97811983    0.45613984    0.20808015    -0.21480000
opls_700-96    C    0.02185005    0.47769992    0.31583980    0.00360000
opls_567-97    C    0.40793009    0.95498005    0.26544896    0.03100000
opls_716-98    C    0.38164012    0.91501997    0.40293918    -0.18700000
opls_567-99    C    0.33427010    0.93049996    0.15630048    0.05180000
opls_716-100    C    0.33969997    0.90078980    0.33558028    -0.18740000
opls_135-101    C    0.70829988    0.07648002    0.05196988    -0.45380000
opls_750-102    N    0.45426984    0.91559979    0.07203085    -0.30880000
opls_750-103    N    0.08440013    0.53867011    0.07203085    -0.30900000
opls_750-104    N    0.46133003    0.54573011    0.07203085    -0.30890000
opls_750-105    N    0.54573000    0.08439990    0.07203085    -0.30900000
opls_750-106    N    0.91559987    0.46132989    0.07203085    -0.30900000
opls_750-107    N    0.53866997    0.45426989    0.07203085    -0.30890000
opls_633-108    S    0.97625988    0.59574990    0.06392986    0.07400000
opls_633-109    S    0.40425001    0.38050985    0.06392986    0.07400000
opls_633-110    S    0.61948995    0.02373993    0.06392986    0.07400000
opls_633-111    S    0.02374012    0.40425010    0.06392986    0.07400000
opls_633-112    S    0.59574983    0.61948983    0.06392986    0.07400000
opls_633-113    S    0.38051005    0.97626007    0.06392986    0.07400000
opls_146-114    H    0.45772994    0.61455984    0.10132889    0.11480000
opls_146-115    H    0.42717992    0.65960995    0.02543905    0.11480000
opls_146-116    H    0.32295983    0.55951987    0.44604982    0.11200000
opls_146-117    H    0.35218985    0.51317994    0.55383032    0.11240000
opls_146-118    H    0.41162015    0.69983009    0.69783991    0.11200000
opls_144-119    H    0.50195995    0.90597985    0.84054927    0.11550000
opls_146-120    H    0.42220979    0.46094981    0.17004013    0.10970000
opls_570-121    H    0.89699013    0.50439003    0.55009120    0.11590000
opls_570-122    H    0.87021995    0.55616991    0.41904998    0.11250000
opls_140-123    H    0.08073980    0.35295985    0.28684924    0.16340000
opls_140-124    H    0.10538981    0.38060987    0.88770910    0.16300000
opls_140-125    H    0.04883990    0.34392989    0.90220960    0.16290000
opls_146-126    H    0.38543992    0.84316988    0.10132889    0.11480000
opls_146-127    H    0.34039016    0.76757005    0.02543905    0.11480000
opls_146-128    H    0.44047992    0.76343992    0.44604982    0.11200000
opls_146-129    H    0.48681986    0.83900990    0.55383032    0.11230000
opls_146-130    H    0.30017007    0.71178992    0.69783991    0.11210000
opls_144-131    H    0.09401986    0.59597980    0.84054927    0.11550000
opls_146-132    H    0.53905001    0.96125988    0.17004013    0.10970000
opls_570-133    H    0.49560998    0.39259986    0.55009120    0.11590000
opls_570-134    H    0.44383006    0.31404985    0.41904998    0.11250000
opls_140-135    H    0.64703989    0.72777985    0.28684924    0.16340000
opls_140-136    H    0.61938993    0.72477982    0.88770910    0.16300000
opls_140-137    H    0.65607000    0.70490996    0.90220960    0.16290000
opls_146-138    H    0.15682998    0.54226996    0.10132889    0.11480000
opls_146-139    H    0.23242992    0.57281999    0.02543905    0.11480000
opls_146-140    H    0.23655982    0.67703989    0.44604982    0.11200000
opls_146-141    H    0.16098986    0.64780984    0.55383032    0.11230000
opls_146-142    H    0.28821006    0.58838000    0.69783991    0.11200000
opls_144-143    H    0.40402003    0.49804004    0.84054927    0.11570000
opls_146-144    H    0.03874004    0.57779000    0.17004013    0.10970000
opls_570-145    H    0.60740016    0.10301010    0.55009120    0.11590000
opls_570-146    H    0.68594983    0.12977992    0.41904998    0.11260000
opls_140-147    H    0.27221987    0.91925997    0.28684924    0.16350000
opls_140-148    H    0.27522010    0.89461000    0.88770910    0.16300000
opls_140-149    H    0.29508994    0.95115983    0.90220960    0.16290000
opls_146-150    H    0.54226990    0.38543984    0.10132889    0.11480000
opls_146-151    H    0.57282008    0.34039005    0.02543905    0.11480000
opls_146-152    H    0.67704001    0.44047982    0.44604982    0.11200000
opls_146-153    H    0.64781015    0.48682006    0.55383032    0.11240000
opls_146-154    H    0.58837985    0.30016991    0.69783991    0.11200000
opls_144-155    H    0.49804005    0.09402015    0.84054927    0.11550000
opls_146-156    H    0.57779005    0.53904988    0.17004013    0.10970000
opls_570-157    H    0.10300987    0.49560997    0.55009120    0.11590000
opls_570-158    H    0.12978005    0.44383009    0.41904998    0.11250000
opls_140-159    H    0.91926004    0.64703983    0.28684924    0.16340000
opls_140-160    H    0.89461003    0.61938981    0.88770910    0.16310000
opls_140-161    H    0.95115994    0.65606979    0.90220960    0.16290000
opls_146-162    H    0.61456008    0.15683012    0.10132889    0.11480000
opls_146-163    H    0.65960984    0.23242995    0.02543905    0.11480000
opls_146-164    H    0.55952008    0.23656008    0.44604982    0.11200000
opls_146-165    H    0.51318014    0.16099010    0.55383032    0.11240000
opls_146-166    H    0.69982993    0.28821008    0.69783991    0.11200000
opls_144-167    H    0.90597998    0.40401989    0.84054927    0.11550000
opls_146-168    H    0.46094999    0.03874012    0.17004013    0.10970000
opls_570-169    H    0.50438986    0.60739982    0.55009120    0.11590000
opls_570-170    H    0.55616978    0.68594983    0.41904998    0.11250000
opls_140-171    H    0.35295995    0.27221983    0.28684924    0.16340000
opls_140-172    H    0.38060991    0.27521987    0.88770910    0.16310000
opls_140-173    H    0.34393000    0.29509004    0.90220960    0.16290000
opls_146-174    H    0.84317002    0.45773004    0.10132889    0.11480000
opls_146-175    H    0.76757008    0.42718001    0.02543905    0.11480000
opls_146-176    H    0.76344018    0.32296011    0.44604982    0.11200000
opls_146-177    H    0.83900998    0.35218984    0.55383032    0.11230000
opls_146-178    H    0.71178994    0.41162000    0.69783991    0.11200000
opls_144-179    H    0.59597997    0.50195996    0.84054927    0.11560000
opls_146-180    H    0.96125996    0.42221000    0.17004013    0.10970000
opls_570-181    H    0.39259984    0.89698990    0.55009120    0.11590000
opls_570-182    H    0.31405017    0.87022008    0.41904998    0.11260000
opls_140-183    H    0.72778013    0.08074003    0.28684924    0.16340000
opls_140-184    H    0.72477990    0.10539000    0.88770910    0.16300000
opls_140-185    H    0.70490990    0.04883985    0.90220960    0.16290000
