#======================================================================
# Crystal Data Generated By AuToFF
#----------------------------------------------------------------------

data_AuToFF_phase_1

_cell_length_a                         24.0320
_cell_length_b                         24.0320
_cell_length_c                         8.4840
_cell_angle_alpha                      90.00
_cell_angle_beta                       90.00
_cell_angle_gamma                      90.00
_symmetry_space_group_name_H-M_alt     'P 1'
_symmetry_space_group_IT_number        1

loop_
_space_group_symop_operation_xyz
   'x, y, z'

loop_
   _atom_site_label
   _atom_site_type_symbol
   _atom_site_fract_x
   _atom_site_fract_y
   _atom_site_fract_z
   _atom_site_charge
opls_750-0    N    0.95650008    0.14901007    0.51677982    -0.34620000
opls_520-1    N    0.86746005    0.18381991    0.84628006    -0.29250000
opls_750-2    N    0.45650008    0.64901007    0.01677982    -0.34610000
opls_520-3    N    0.36746005    0.68381991    0.34628006    -0.29250000
opls_750-4    N    0.04349992    0.85098993    0.51677982    -0.34620000
opls_520-5    N    0.13253995    0.81618009    0.84628006    -0.29250000
opls_750-6    N    0.54349992    0.35098993    0.01677982    -0.34620000
opls_520-7    N    0.63253995    0.31618009    0.34628006    -0.29250000
opls_750-8    N    0.14901007    0.04349992    0.48322018    -0.34620000
opls_520-9    N    0.18381991    0.13253995    0.15371994    -0.29250000
opls_750-10    N    0.64901007    0.54349992    0.98322018    -0.34610000
opls_520-11    N    0.68381991    0.63253995    0.65371994    -0.29250000
opls_750-12    N    0.85098993    0.95650008    0.48322018    -0.34610000
opls_520-13    N    0.81618009    0.86746005    0.15371994    -0.29250000
opls_750-14    N    0.35098993    0.45650008    0.98322018    -0.34620000
opls_520-15    N    0.31618009    0.36746005    0.65371994    -0.29250000
opls_750-16    N    0.54349992    0.14901007    0.23322018    -0.34620000
opls_520-17    N    0.63253995    0.18381991    0.90371994    -0.29240000
opls_750-18    N    0.04349992    0.64901007    0.73322018    -0.34620000
opls_520-19    N    0.13253995    0.68381991    0.40371994    -0.29250000
opls_750-20    N    0.45650008    0.85098993    0.23322018    -0.34620000
opls_520-21    N    0.36746005    0.81618009    0.90371994    -0.29240000
opls_750-22    N    0.95650008    0.35098993    0.73322018    -0.34620000
opls_520-23    N    0.86746005    0.31618009    0.40371994    -0.29250000
opls_750-24    N    0.35098993    0.04349992    0.26677982    -0.34620000
opls_520-25    N    0.31618009    0.13253995    0.59628006    -0.29250000
opls_750-26    N    0.85098993    0.54349992    0.76677982    -0.34620000
opls_520-27    N    0.81618009    0.63253995    0.09628006    -0.29250000
opls_750-28    N    0.64901007    0.95650008    0.26677982    -0.34620000
opls_520-29    N    0.68381991    0.86746005    0.59628006    -0.29250000
opls_750-30    N    0.14901007    0.45650008    0.76677982    -0.34620000
opls_520-31    N    0.18381991    0.36746005    0.09628006    -0.29250000
opls_700-32    C    0.98362017    0.04727988    0.11351014    0.06290000
opls_145-33    C    0.93353986    0.04284995    0.19946016    -0.12880000
opls_145-34    C    0.92260985    0.07769016    0.32718058    -0.16540000
opls_145-35    C    0.96191994    0.11758988    0.37398986    0.20150000
opls_145-36    C    0.01118009    0.12300017    0.28836987    -0.16010000
opls_145-37    C    0.02231982    0.08825982    0.16043022    -0.12900000
opls_142-38    C    0.91161992    0.15486019    0.60080033    0.03240000
opls_521-39    C    0.91347994    0.18386984    0.75295969    0.16400000
opls_522-40    C    0.96221996    0.20969998    0.80611033    -0.15970000
opls_523-41    C    0.96276007    0.23558006    0.95285007    -0.11580000
opls_700-42    C    0.91471996    0.23595997    0.04704031    0.03120000
opls_521-43    C    0.86689997    0.20888981    0.98991985    0.07550000
opls_700-44    C    0.48362017    0.54727988    0.61351014    0.06290000
opls_145-45    C    0.43353986    0.54284995    0.69946016    -0.12880000
opls_145-46    C    0.42260985    0.57769016    0.82718058    -0.16540000
opls_145-47    C    0.46191994    0.61758988    0.87398986    0.20150000
opls_145-48    C    0.51118009    0.62300017    0.78836987    -0.16010000
opls_145-49    C    0.52231982    0.58825982    0.66043022    -0.12900000
opls_142-50    C    0.41161992    0.65486019    0.10080033    0.03240000
opls_521-51    C    0.41347994    0.68386984    0.25295969    0.16400000
opls_522-52    C    0.46221996    0.70969998    0.30611033    -0.15970000
opls_523-53    C    0.46276007    0.73558006    0.45285007    -0.11580000
opls_700-54    C    0.41471996    0.73595997    0.54704031    0.03120000
opls_521-55    C    0.36689997    0.70888981    0.48991985    0.07550000
opls_700-56    C    0.01637983    0.95272012    0.11351014    0.06290000
opls_145-57    C    0.06646014    0.95715005    0.19946016    -0.12880000
opls_145-58    C    0.07739015    0.92230984    0.32718058    -0.16540000
opls_145-59    C    0.03808006    0.88241012    0.37398986    0.20150000
opls_145-60    C    0.98881991    0.87699983    0.28836987    -0.16010000
opls_145-61    C    0.97768018    0.91174018    0.16043022    -0.12900000
opls_142-62    C    0.08838008    0.84513981    0.60080033    0.03240000
opls_521-63    C    0.08652006    0.81613016    0.75295969    0.16400000
opls_522-64    C    0.03778004    0.79030002    0.80611033    -0.15970000
opls_523-65    C    0.03723993    0.76441994    0.95285007    -0.11580000
opls_700-66    C    0.08528004    0.76404003    0.04704031    0.03120000
opls_521-67    C    0.13310003    0.79111019    0.98991985    0.07550000
opls_700-68    C    0.51637983    0.45272012    0.61351014    0.06290000
opls_145-69    C    0.56646014    0.45715005    0.69946016    -0.12880000
opls_145-70    C    0.57739015    0.42230984    0.82718058    -0.16540000
opls_145-71    C    0.53808006    0.38241012    0.87398986    0.20150000
opls_145-72    C    0.48881991    0.37699983    0.78836987    -0.16010000
opls_145-73    C    0.47768018    0.41174018    0.66043022    -0.12900000
opls_142-74    C    0.58838008    0.34513981    0.10080033    0.03240000
opls_521-75    C    0.58652006    0.31613016    0.25295969    0.16400000
opls_522-76    C    0.53778004    0.29030002    0.30611033    -0.15970000
opls_523-77    C    0.53723993    0.26441994    0.45285007    -0.11580000
opls_700-78    C    0.58528004    0.26404003    0.54704031    0.03120000
opls_521-79    C    0.63310003    0.29111019    0.48991985    0.07550000
opls_700-80    C    0.04727988    0.01637983    0.88648986    0.06290000
opls_145-81    C    0.04284995    0.06646014    0.80053984    -0.12880000
opls_145-82    C    0.07769016    0.07739015    0.67281942    -0.16540000
opls_145-83    C    0.11758988    0.03808006    0.62601014    0.20150000
opls_145-84    C    0.12300017    0.98881991    0.71163013    -0.16010000
opls_145-85    C    0.08825982    0.97768018    0.83956978    -0.12900000
opls_142-86    C    0.15486019    0.08838008    0.39919967    0.03240000
opls_521-87    C    0.18386984    0.08652006    0.24704031    0.16400000
opls_522-88    C    0.20969998    0.03778004    0.19388967    -0.15970000
opls_523-89    C    0.23558006    0.03723993    0.04714993    -0.11580000
opls_700-90    C    0.23595997    0.08528004    0.95295969    0.03120000
opls_521-91    C    0.20888981    0.13310003    0.01008015    0.07550000
opls_700-92    C    0.54727988    0.51637983    0.38648986    0.06290000
opls_145-93    C    0.54284995    0.56646014    0.30053984    -0.12880000
opls_145-94    C    0.57769016    0.57739015    0.17281942    -0.16540000
opls_145-95    C    0.61758988    0.53808006    0.12601014    0.20150000
opls_145-96    C    0.62300017    0.48881991    0.21163013    -0.16010000
opls_145-97    C    0.58825982    0.47768018    0.33956978    -0.12900000
opls_142-98    C    0.65486019    0.58838008    0.89919967    0.03240000
opls_521-99    C    0.68386984    0.58652006    0.74704031    0.16410000
opls_522-100    C    0.70969998    0.53778004    0.69388967    -0.15970000
opls_523-101    C    0.73558006    0.53723993    0.54714993    -0.11580000
opls_700-102    C    0.73595997    0.58528004    0.45295969    0.03120000
opls_521-103    C    0.70888981    0.63310003    0.51008015    0.07550000
opls_700-104    C    0.95272012    0.98362017    0.88648986    0.06290000
opls_145-105    C    0.95715005    0.93353986    0.80053984    -0.12880000
opls_145-106    C    0.92230984    0.92260985    0.67281942    -0.16540000
opls_145-107    C    0.88241012    0.96191994    0.62601014    0.20150000
opls_145-108    C    0.87699983    0.01118009    0.71163013    -0.16010000
opls_145-109    C    0.91174018    0.02231982    0.83956978    -0.12900000
opls_142-110    C    0.84513981    0.91161992    0.39919967    0.03240000
opls_521-111    C    0.81613016    0.91347994    0.24704031    0.16400000
opls_522-112    C    0.79030002    0.96221996    0.19388967    -0.15970000
opls_523-113    C    0.76441994    0.96276007    0.04714993    -0.11580000
opls_700-114    C    0.76404003    0.91471996    0.95295969    0.03120000
opls_521-115    C    0.79111019    0.86689997    0.01008015    0.07550000
opls_700-116    C    0.45272012    0.48362017    0.38648986    0.06290000
opls_145-117    C    0.45715005    0.43353986    0.30053984    -0.12870000
opls_145-118    C    0.42230984    0.42260985    0.17281942    -0.16540000
opls_145-119    C    0.38241012    0.46191994    0.12601014    0.20150000
opls_145-120    C    0.37699983    0.51118009    0.21163013    -0.16010000
opls_145-121    C    0.41174018    0.52231982    0.33956978    -0.12890000
opls_142-122    C    0.34513981    0.41161992    0.89919967    0.03240000
opls_521-123    C    0.31613016    0.41347994    0.74704031    0.16400000
opls_522-124    C    0.29030002    0.46221996    0.69388967    -0.15970000
opls_523-125    C    0.26441994    0.46276007    0.54714993    -0.11580000
opls_700-126    C    0.26404003    0.41471996    0.45295969    0.03120000
opls_521-127    C    0.29111019    0.36689997    0.51008015    0.07550000
opls_700-128    C    0.51637983    0.04727988    0.63648986    0.06290000
opls_145-129    C    0.56646014    0.04284995    0.55053984    -0.12880000
opls_145-130    C    0.57739015    0.07769016    0.42281942    -0.16540000
opls_145-131    C    0.53808006    0.11758988    0.37601014    0.20160000
opls_145-132    C    0.48881991    0.12300017    0.46163013    -0.16010000
opls_145-133    C    0.47768018    0.08825982    0.58956978    -0.12900000
opls_142-134    C    0.58838008    0.15486019    0.14919967    0.03240000
opls_521-135    C    0.58652006    0.18386984    0.99704031    0.16400000
opls_522-136    C    0.53778004    0.20969998    0.94388967    -0.15970000
opls_523-137    C    0.53723993    0.23558006    0.79714993    -0.11580000
opls_700-138    C    0.58528004    0.23595997    0.70295969    0.03120000
opls_521-139    C    0.63310003    0.20888981    0.76008015    0.07550000
opls_700-140    C    0.01637983    0.54727988    0.13648986    0.06290000
opls_145-141    C    0.06646014    0.54284995    0.05053984    -0.12880000
opls_145-142    C    0.07739015    0.57769016    0.92281942    -0.16540000
opls_145-143    C    0.03808006    0.61758988    0.87601014    0.20150000
opls_145-144    C    0.98881991    0.62300017    0.96163013    -0.16010000
opls_145-145    C    0.97768018    0.58825982    0.08956978    -0.12900000
opls_142-146    C    0.08838008    0.65486019    0.64919967    0.03240000
opls_521-147    C    0.08652006    0.68386984    0.49704031    0.16400000
opls_522-148    C    0.03778004    0.70969998    0.44388967    -0.15970000
opls_523-149    C    0.03723993    0.73558006    0.29714993    -0.11580000
opls_700-150    C    0.08528004    0.73595997    0.20295969    0.03120000
opls_521-151    C    0.13310003    0.70888981    0.26008015    0.07550000
opls_700-152    C    0.48362017    0.95272012    0.63648986    0.06290000
opls_145-153    C    0.43353986    0.95715005    0.55053984    -0.12880000
opls_145-154    C    0.42260985    0.92230984    0.42281942    -0.16540000
opls_145-155    C    0.46191994    0.88241012    0.37601014    0.20150000
opls_145-156    C    0.51118009    0.87699983    0.46163013    -0.16010000
opls_145-157    C    0.52231982    0.91174018    0.58956978    -0.12900000
opls_142-158    C    0.41161992    0.84513981    0.14919967    0.03250000
opls_521-159    C    0.41347994    0.81613016    0.99704031    0.16400000
opls_522-160    C    0.46221996    0.79030002    0.94388967    -0.15970000
opls_523-161    C    0.46276007    0.76441994    0.79714993    -0.11580000
opls_700-162    C    0.41471996    0.76404003    0.70295969    0.03120000
opls_521-163    C    0.36689997    0.79111019    0.76008015    0.07550000
opls_700-164    C    0.98362017    0.45272012    0.13648986    0.06290000
opls_145-165    C    0.93353986    0.45715005    0.05053984    -0.12880000
opls_145-166    C    0.92260985    0.42230984    0.92281942    -0.16530000
opls_145-167    C    0.96191994    0.38241012    0.87601014    0.20160000
opls_145-168    C    0.01118009    0.37699983    0.96163013    -0.16010000
opls_145-169    C    0.02231982    0.41174018    0.08956978    -0.12900000
opls_142-170    C    0.91161992    0.34513981    0.64919967    0.03240000
opls_521-171    C    0.91347994    0.31613016    0.49704031    0.16400000
opls_522-172    C    0.96221996    0.29030002    0.44388967    -0.15970000
opls_523-173    C    0.96276007    0.26441994    0.29714993    -0.11570000
opls_700-174    C    0.91471996    0.26404003    0.20295969    0.03120000
opls_521-175    C    0.86689997    0.29111019    0.26008015    0.07550000
opls_700-176    C    0.45272012    0.01637983    0.86351014    0.06290000
opls_145-177    C    0.45715005    0.06646014    0.94946016    -0.12880000
opls_145-178    C    0.42230984    0.07739015    0.07718058    -0.16540000
opls_145-179    C    0.38241012    0.03808006    0.12398986    0.20150000
opls_145-180    C    0.37699983    0.98881991    0.03836987    -0.16010000
opls_145-181    C    0.41174018    0.97768018    0.91043022    -0.12900000
opls_142-182    C    0.34513981    0.08838008    0.35080033    0.03240000
opls_521-183    C    0.31613016    0.08652006    0.50295969    0.16400000
opls_522-184    C    0.29030002    0.03778004    0.55611033    -0.15970000
opls_523-185    C    0.26441994    0.03723993    0.70285007    -0.11580000
opls_700-186    C    0.26404003    0.08528004    0.79704031    0.03120000
opls_521-187    C    0.29111019    0.13310003    0.73991985    0.07550000
opls_700-188    C    0.95272012    0.51637983    0.36351014    0.06290000
opls_145-189    C    0.95715005    0.56646014    0.44946016    -0.12870000
opls_145-190    C    0.92230984    0.57739015    0.57718058    -0.16540000
opls_145-191    C    0.88241012    0.53808006    0.62398986    0.20150000
opls_145-192    C    0.87699983    0.48881991    0.53836987    -0.16010000
opls_145-193    C    0.91174018    0.47768018    0.41043022    -0.12900000
opls_142-194    C    0.84513981    0.58838008    0.85080033    0.03240000
opls_521-195    C    0.81613016    0.58652006    0.00295969    0.16400000
opls_522-196    C    0.79030002    0.53778004    0.05611033    -0.15970000
opls_523-197    C    0.76441994    0.53723993    0.20285007    -0.11580000
opls_700-198    C    0.76404003    0.58528004    0.29704031    0.03120000
opls_521-199    C    0.79111019    0.63310003    0.23991985    0.07550000
opls_700-200    C    0.54727988    0.98362017    0.86351014    0.06290000
opls_145-201    C    0.54284995    0.93353986    0.94946016    -0.12880000
opls_145-202    C    0.57769016    0.92260985    0.07718058    -0.16540000
opls_145-203    C    0.61758988    0.96191994    0.12398986    0.20160000
opls_145-204    C    0.62300017    0.01118009    0.03836987    -0.16010000
opls_145-205    C    0.58825982    0.02231982    0.91043022    -0.12890000
opls_142-206    C    0.65486019    0.91161992    0.35080033    0.03240000
opls_521-207    C    0.68386984    0.91347994    0.50295969    0.16400000
opls_522-208    C    0.70969998    0.96221996    0.55611033    -0.15970000
opls_523-209    C    0.73558006    0.96276007    0.70285007    -0.11580000
opls_700-210    C    0.73595997    0.91471996    0.79704031    0.03120000
opls_521-211    C    0.70888981    0.86689997    0.73991985    0.07550000
opls_700-212    C    0.04727988    0.48362017    0.36351014    0.06290000
opls_145-213    C    0.04284995    0.43353986    0.44946016    -0.12880000
opls_145-214    C    0.07769016    0.42260985    0.57718058    -0.16540000
opls_145-215    C    0.11758988    0.46191994    0.62398986    0.20150000
opls_145-216    C    0.12300017    0.51118009    0.53836987    -0.16010000
opls_145-217    C    0.08825982    0.52231982    0.41043022    -0.12900000
opls_142-218    C    0.15486019    0.41161992    0.85080033    0.03240000
opls_521-219    C    0.18386984    0.41347994    0.00295969    0.16400000
opls_522-220    C    0.20969998    0.46221996    0.05611033    -0.15970000
opls_523-221    C    0.23558006    0.46276007    0.20285007    -0.11580000
opls_700-222    C    0.23595997    0.41471996    0.29704031    0.03120000
opls_521-223    C    0.20888981    0.36689997    0.23991985    0.07550000
opls_701-224    C    0.00000000    0.00000000    0.00000000    0.00970000
opls_701-225    C    0.50000000    0.50000000    0.50000000    0.00970000
opls_701-226    C    0.50000000    0.00000000    0.75000000    0.00970000
opls_701-227    C    0.00000000    0.50000000    0.25000000    0.00970000
opls_146-228    H    0.90415987    0.00999001    0.17312942    0.11990000
opls_146-229    H    0.88501997    0.07068991    0.39365040    0.10610000
opls_146-230    H    0.04221996    0.15271014    0.32619048    0.12200000
opls_146-231    H    0.06281999    0.09141020    0.10539015    0.12220000
opls_144-232    H    0.87224992    0.13750999    0.56413013    0.11800000
opls_525-233    H    0.99938998    0.21002996    0.73415017    0.12230000
opls_526-234    H    0.00042984    0.25617011    0.99080976    0.12050000
opls_524-235    H    0.82937001    0.20684005    0.06016973    0.09640000
opls_146-236    H    0.40415987    0.50999001    0.67312942    0.11990000
opls_146-237    H    0.38501997    0.57068991    0.89365040    0.10610000
opls_146-238    H    0.54221996    0.65271014    0.82619048    0.12210000
opls_146-239    H    0.56281999    0.59141020    0.60539015    0.12220000
opls_144-240    H    0.37224992    0.63750999    0.06413013    0.11800000
opls_525-241    H    0.49938998    0.71002996    0.23415017    0.12230000
opls_526-242    H    0.50042984    0.75617011    0.49080976    0.12050000
opls_524-243    H    0.32937001    0.70684005    0.56016973    0.09640000
opls_146-244    H    0.09584013    0.99000999    0.17312942    0.11990000
opls_146-245    H    0.11498003    0.92931009    0.39365040    0.10610000
opls_146-246    H    0.95778004    0.84728986    0.32619048    0.12200000
opls_146-247    H    0.93718001    0.90858980    0.10539015    0.12220000
opls_144-248    H    0.12775008    0.86249001    0.56413013    0.11800000
opls_525-249    H    0.00061002    0.78997004    0.73415017    0.12230000
opls_526-250    H    0.99957016    0.74382989    0.99080976    0.12050000
opls_524-251    H    0.17062999    0.79315995    0.06016973    0.09640000
opls_146-252    H    0.59584013    0.49000999    0.67312942    0.11990000
opls_146-253    H    0.61498003    0.42931009    0.89365040    0.10610000
opls_146-254    H    0.45778004    0.34728986    0.82619048    0.12200000
opls_146-255    H    0.43718001    0.40858980    0.60539015    0.12220000
opls_144-256    H    0.62775008    0.36249001    0.06413013    0.11800000
opls_525-257    H    0.50061002    0.28997004    0.23415017    0.12230000
opls_526-258    H    0.49957016    0.24382989    0.49080976    0.12050000
opls_524-259    H    0.67062999    0.29315995    0.56016973    0.09640000
opls_146-260    H    0.00999001    0.09584013    0.82687058    0.11990000
opls_146-261    H    0.07068991    0.11498003    0.60634960    0.10610000
opls_146-262    H    0.15271014    0.95778004    0.67380952    0.12200000
opls_146-263    H    0.09141020    0.93718001    0.89460985    0.12220000
opls_144-264    H    0.13750999    0.12775008    0.43586987    0.11810000
opls_525-265    H    0.21002996    0.00061002    0.26584983    0.12240000
opls_526-266    H    0.25617011    0.99957016    0.00919024    0.12050000
opls_524-267    H    0.20684005    0.17062999    0.93983027    0.09640000
opls_146-268    H    0.50999001    0.59584013    0.32687058    0.11990000
opls_146-269    H    0.57068991    0.61498003    0.10634960    0.10620000
opls_146-270    H    0.65271014    0.45778004    0.17380952    0.12200000
opls_146-271    H    0.59141020    0.43718001    0.39460985    0.12220000
opls_144-272    H    0.63750999    0.62775008    0.93586987    0.11810000
opls_525-273    H    0.71002996    0.50061002    0.76584983    0.12230000
opls_526-274    H    0.75617011    0.49957016    0.50919024    0.12050000
opls_524-275    H    0.70684005    0.67062999    0.43983027    0.09640000
opls_146-276    H    0.99000999    0.90415987    0.82687058    0.11990000
opls_146-277    H    0.92931009    0.88501997    0.60634960    0.10610000
opls_146-278    H    0.84728986    0.04221996    0.67380952    0.12200000
opls_146-279    H    0.90858980    0.06281999    0.89460985    0.12220000
opls_144-280    H    0.86249001    0.87224992    0.43586987    0.11800000
opls_525-281    H    0.78997004    0.99938998    0.26584983    0.12230000
opls_526-282    H    0.74382989    0.00042984    0.00919024    0.12050000
opls_524-283    H    0.79315995    0.82937001    0.93983027    0.09640000
opls_146-284    H    0.49000999    0.40415987    0.32687058    0.11990000
opls_146-285    H    0.42931009    0.38501997    0.10634960    0.10610000
opls_146-286    H    0.34728986    0.54221996    0.17380952    0.12210000
opls_146-287    H    0.40858980    0.56281999    0.39460985    0.12220000
opls_144-288    H    0.36249001    0.37224992    0.93586987    0.11800000
opls_525-289    H    0.28997004    0.49938998    0.76584983    0.12230000
opls_526-290    H    0.24382989    0.50042984    0.50919024    0.12050000
opls_524-291    H    0.29315995    0.32937001    0.43983027    0.09640000
opls_146-292    H    0.59584013    0.00999001    0.57687058    0.11990000
opls_146-293    H    0.61498003    0.07068991    0.35634960    0.10610000
opls_146-294    H    0.45778004    0.15271014    0.42380952    0.12200000
opls_146-295    H    0.43718001    0.09141020    0.64460985    0.12220000
opls_144-296    H    0.62775008    0.13750999    0.18586987    0.11800000
opls_525-297    H    0.50061002    0.21002996    0.01584983    0.12230000
opls_526-298    H    0.49957016    0.25617011    0.75919024    0.12050000
opls_524-299    H    0.67062999    0.20684005    0.68983027    0.09640000
opls_146-300    H    0.09584013    0.50999001    0.07687058    0.11990000
opls_146-301    H    0.11498003    0.57068991    0.85634960    0.10610000
opls_146-302    H    0.95778004    0.65271014    0.92380952    0.12210000
opls_146-303    H    0.93718001    0.59141020    0.14460985    0.12220000
opls_144-304    H    0.12775008    0.63750999    0.68586987    0.11800000
opls_525-305    H    0.00061002    0.71002996    0.51584983    0.12230000
opls_526-306    H    0.99957016    0.75617011    0.25919024    0.12050000
opls_524-307    H    0.17062999    0.70684005    0.18983027    0.09640000
opls_146-308    H    0.40415987    0.99000999    0.57687058    0.11990000
opls_146-309    H    0.38501997    0.92931009    0.35634960    0.10610000
opls_146-310    H    0.54221996    0.84728986    0.42380952    0.12200000
opls_146-311    H    0.56281999    0.90858980    0.64460985    0.12230000
opls_144-312    H    0.37224992    0.86249001    0.18586987    0.11800000
opls_525-313    H    0.49938998    0.78997004    0.01584983    0.12230000
opls_526-314    H    0.50042984    0.74382989    0.75919024    0.12050000
opls_524-315    H    0.32937001    0.79315995    0.68983027    0.09640000
opls_146-316    H    0.90415987    0.49000999    0.07687058    0.11990000
opls_146-317    H    0.88501997    0.42931009    0.85634960    0.10610000
opls_146-318    H    0.04221996    0.34728986    0.92380952    0.12200000
opls_146-319    H    0.06281999    0.40858980    0.14460985    0.12220000
opls_144-320    H    0.87224992    0.36249001    0.68586987    0.11800000
opls_525-321    H    0.99938998    0.28997004    0.51584983    0.12230000
opls_526-322    H    0.00042984    0.24382989    0.25919024    0.12050000
opls_524-323    H    0.82937001    0.29315995    0.18983027    0.09640000
opls_146-324    H    0.49000999    0.09584013    0.92312942    0.11990000
opls_146-325    H    0.42931009    0.11498003    0.14365040    0.10620000
opls_146-326    H    0.34728986    0.95778004    0.07619048    0.12200000
opls_146-327    H    0.40858980    0.93718001    0.85539015    0.12220000
opls_144-328    H    0.36249001    0.12775008    0.31413013    0.11800000
opls_525-329    H    0.28997004    0.00061002    0.48415017    0.12230000
opls_526-330    H    0.24382989    0.99957016    0.74080976    0.12050000
opls_524-331    H    0.29315995    0.17062999    0.81016973    0.09640000
opls_146-332    H    0.99000999    0.59584013    0.42312942    0.11990000
opls_146-333    H    0.92931009    0.61498003    0.64365040    0.10620000
opls_146-334    H    0.84728986    0.45778004    0.57619048    0.12200000
opls_146-335    H    0.90858980    0.43718001    0.35539015    0.12220000
opls_144-336    H    0.86249001    0.62775008    0.81413013    0.11800000
opls_525-337    H    0.78997004    0.50061002    0.98415017    0.12230000
opls_526-338    H    0.74382989    0.49957016    0.24080976    0.12050000
opls_524-339    H    0.79315995    0.67062999    0.31016973    0.09640000
opls_146-340    H    0.50999001    0.90415987    0.92312942    0.12000000
opls_146-341    H    0.57068991    0.88501997    0.14365040    0.10610000
opls_146-342    H    0.65271014    0.04221996    0.07619048    0.12200000
opls_146-343    H    0.59141020    0.06281999    0.85539015    0.12220000
opls_144-344    H    0.63750999    0.87224992    0.31413013    0.11800000
opls_525-345    H    0.71002996    0.99938998    0.48415017    0.12230000
opls_526-346    H    0.75617011    0.00042984    0.74080976    0.12060000
opls_524-347    H    0.70684005    0.82937001    0.81016973    0.09640000
opls_146-348    H    0.00999001    0.40415987    0.42312942    0.11990000
opls_146-349    H    0.07068991    0.38501997    0.64365040    0.10610000
opls_146-350    H    0.15271014    0.54221996    0.57619048    0.12200000
opls_146-351    H    0.09141020    0.56281999    0.35539015    0.12220000
opls_144-352    H    0.13750999    0.37224992    0.81413013    0.11800000
opls_525-353    H    0.21002996    0.49938998    0.98415017    0.12230000
opls_526-354    H    0.25617011    0.50042984    0.24080976    0.12050000
opls_524-355    H    0.20684005    0.32937001    0.31016973    0.09640000
