#======================================================================
# Crystal Data Generated By AuToFF
#----------------------------------------------------------------------

data_AuToFF_phase_1

_cell_length_a                         36.8470
_cell_length_b                         36.8470
_cell_length_c                         10.2784
_cell_angle_alpha                      90.00
_cell_angle_beta                       90.00
_cell_angle_gamma                      120.00
_symmetry_space_group_name_H-M_alt     'P 1'
_symmetry_space_group_IT_number        1

loop_
_space_group_symop_operation_xyz
   'x, y, z'

loop_
   _atom_site_label
   _atom_site_type_symbol
   _atom_site_fract_x
   _atom_site_fract_y
   _atom_site_fract_z
   _atom_site_charge
opls_520-0    N    0.62524001    0.33612009    0.16889983    -0.40250000
opls_750-1    N    0.54226011    0.13576999    0.16367042    -0.29220000
opls_520-2    N    0.68672998    0.32991993    0.16889983    -0.40250000
opls_750-3    N    0.88708000    0.44728998    0.16367042    -0.29220000
opls_520-4    N    0.69292989    0.39761000    0.16889983    -0.40250000
opls_750-5    N    0.57556004    0.48059005    0.16367042    -0.29220000
opls_520-6    N    0.37801994    0.70630991    0.16889983    -0.40200000
opls_750-7    N    0.46100987    0.90666001    0.16367042    -0.28030000
opls_520-8    N    0.31654000    0.71251008    0.16889983    -0.40200000
opls_750-9    N    0.11619011    0.59515005    0.16367042    -0.28030000
opls_520-10    N    0.31033995    0.64483003    0.16889983    -0.40250000
opls_750-11    N    0.42769990    0.56183995    0.16367042    -0.28030000
opls_520-12    N    0.66387995    0.28912011    0.50222992    -0.40250000
opls_750-13    N    0.86422981    0.40648985    0.49699953    -0.29220000
opls_520-14    N    0.67007997    0.35680987    0.50222992    -0.40250000
opls_750-15    N    0.55270985    0.43978992    0.49699953    -0.29220000
opls_520-16    N    0.60239008    0.29531996    0.50222992    -0.40250000
opls_750-17    N    0.51940992    0.09496986    0.49699953    -0.29220000
opls_520-18    N    0.29369008    0.67170995    0.50222992    -0.40200000
opls_750-19    N    0.09333991    0.55434992    0.49699953    -0.28030000
opls_520-20    N    0.28749002    0.60402990    0.50222992    -0.40200000
opls_750-21    N    0.40484998    0.52103982    0.49699953    -0.28030000
opls_520-22    N    0.35517017    0.66551010    0.50222992    -0.40250000
opls_750-23    N    0.43815995    0.86585989    0.49699953    -0.28030000
opls_520-24    N    0.71087993    0.37476011    0.83556974    -0.40250000
opls_750-25    N    0.59350992    0.45773985    0.83034033    -0.29220000
opls_520-26    N    0.64318989    0.31326989    0.83556974    -0.40250000
opls_750-27    N    0.56021015    0.11292010    0.83034033    -0.29220000
opls_520-28    N    0.70468002    0.30707004    0.83556974    -0.40250000
opls_750-29    N    0.90503004    0.42444009    0.83034033    -0.29220000
opls_520-30    N    0.32828983    0.62197983    0.83556974    -0.40200000
opls_750-31    N    0.44564994    0.53899006    0.83034033    -0.28030000
opls_520-32    N    0.39596998    0.68346002    0.83556974    -0.40200000
opls_750-33    N    0.47896003    0.88380981    0.83034033    -0.28030000
opls_520-34    N    0.33448988    0.68965987    0.83556974    -0.40250000
opls_750-35    N    0.13413999    0.57229985    0.83034033    -0.28030000
opls_531-36    C    0.64471018    0.31335011    0.16886967    0.38810000
opls_700-37    C    0.61852997    0.26735984    0.16838029    -0.00600000
opls_523-38    C    0.63605002    0.24225990    0.19970034    -0.11270000
opls_145-39    C    0.61175992    0.19900008    0.19967991    -0.15970000
opls_145-40    C    0.56901008    0.17925011    0.16599957    0.20860000
opls_145-41    C    0.55146010    0.20443999    0.13577989    -0.15970000
opls_523-42    C    0.57576006    0.24777001    0.13724996    -0.11310000
opls_145-43    C    0.54508006    0.03800010    0.15977973    -0.22390000
opls_166-44    C    0.51942999    0.99472994    0.16283955    0.29990000
opls_700-45    C    0.47498008    0.97759009    0.16070011    -0.05520000
opls_142-46    C    0.44706998    0.93307989    0.15894984    0.07640000
opls_531-47    C    0.70950010    0.37216002    0.16886967    0.38810000
opls_700-48    C    0.75548990    0.39196984    0.16838029    -0.00600000
opls_523-49    C    0.78059001    0.43459006    0.19970034    -0.11270000
opls_145-50    C    0.82385006    0.45356003    0.19967991    -0.15970000
opls_145-51    C    0.84360010    0.43056003    0.16599957    0.20860000
opls_145-52    C    0.81841001    0.38782010    0.13577989    -0.15970000
opls_523-53    C    0.77508011    0.36879999    0.13724996    -0.11160000
opls_145-54    C    0.98484995    0.54787994    0.15977973    -0.22390000
opls_166-55    C    0.02811998    0.56549988    0.16283955    0.30140000
opls_700-56    C    0.04525996    0.53819001    0.16070011    -0.05520000
opls_142-57    C    0.08976991    0.55478991    0.15894984    0.07640000
opls_531-58    C    0.65068988    0.37813988    0.16886967    0.38810000
opls_700-59    C    0.63088013    0.40432003    0.16838029    -0.00600000
opls_523-60    C    0.58826013    0.38680006    0.19970034    -0.11270000
opls_145-61    C    0.56928990    0.41108991    0.19967991    -0.15710000
opls_145-62    C    0.59228998    0.45383987    0.16599957    0.20860000
opls_145-63    C    0.63503005    0.47138993    0.13577989    -0.16040000
opls_523-64    C    0.65405008    0.44709004    0.13724996    -0.11160000
opls_145-65    C    0.47496988    0.47776997    0.15977973    -0.22390000
opls_166-66    C    0.45735002    0.50341988    0.16283955    0.30140000
opls_700-67    C    0.48465985    0.54786991    0.16070011    -0.05520000
opls_142-68    C    0.46805984    0.57577990    0.15894984    0.07640000
opls_531-69    C    0.35855004    0.72907989    0.16886967    0.38810000
opls_700-70    C    0.38473985    0.77506985    0.16838029    -0.00600000
opls_523-71    C    0.36721996    0.80017010    0.19970034    -0.11280000
opls_145-72    C    0.39150992    0.84343995    0.19967991    -0.15790000
opls_145-73    C    0.43426003    0.86318992    0.16599957    0.20920000
opls_145-74    C    0.45180012    0.83799001    0.13577989    -0.16040000
opls_523-75    C    0.42750002    0.79467002    0.13724996    -0.11280000
opls_145-76    C    0.45819006    0.00443993    0.15977973    -0.22420000
opls_166-77    C    0.48383999    0.04770006    0.16283955    0.30140000
opls_700-78    C    0.52829003    0.06484994    0.16070011    -0.04110000
opls_142-79    C    0.55620001    0.10935011    0.15894984    0.08300000
opls_531-80    C    0.29376012    0.67026998    0.16886967    0.38810000
opls_700-81    C    0.24777993    0.65045985    0.16838029    -0.00600000
opls_523-82    C    0.22267998    0.60783994    0.19970034    -0.11270000
opls_145-83    C    0.17940988    0.58886997    0.19967991    -0.15710000
opls_145-84    C    0.15966012    0.61186997    0.16599957    0.20920000
opls_145-85    C    0.18485998    0.65460990    0.13577989    -0.16040000
opls_523-86    C    0.22817997    0.67364004    0.13724996    -0.11310000
opls_145-87    C    0.01840999    0.49455006    0.15977973    -0.22100000
opls_166-88    C    0.97514997    0.47693984    0.16283955    0.30140000
opls_700-89    C    0.95799999    0.50423999    0.16070011    -0.04110000
opls_142-90    C    0.91349993    0.48765012    0.15894984    0.08550000
opls_531-91    C    0.35257980    0.66429983    0.16886967    0.38810000
opls_700-92    C    0.37238986    0.63810997    0.16838029    -0.00600000
opls_523-93    C    0.41500986    0.65562994    0.19970034    -0.11270000
opls_145-94    C    0.43398008    0.63134009    0.19967991    -0.15970000
opls_145-95    C    0.41097985    0.58858982    0.16599957    0.20920000
opls_145-96    C    0.36824006    0.57105010    0.13577989    -0.15970000
opls_523-97    C    0.34920999    0.59534999    0.13724996    -0.11160000
opls_145-98    C    0.52830011    0.56466003    0.15977973    -0.22100000
opls_166-99    C    0.54591019    0.53901012    0.16283955    0.30140000
opls_700-100    C    0.51861014    0.49456009    0.16070011    -0.04110000
opls_142-101    C    0.53520010    0.46665010    0.15894984    0.08300000
opls_531-102    C    0.68664990    0.33135989    0.50219976    0.38810000
opls_700-103    C    0.73264013    0.35117002    0.50171038    -0.00600000
opls_523-104    C    0.75774008    0.39378993    0.53303043    -0.11270000
opls_145-105    C    0.80099986    0.41275990    0.53301000    -0.15970000
opls_145-106    C    0.82074990    0.38975990    0.49932966    0.20860000
opls_145-107    C    0.79556009    0.34701997    0.46910998    -0.15970000
opls_523-108    C    0.75223005    0.32798984    0.47058005    -0.11310000
opls_145-109    C    0.96200003    0.50707981    0.49310982    -0.22390000
opls_166-110    C    0.00526995    0.52470007    0.49616964    0.29990000
opls_700-111    C    0.02241003    0.49738988    0.49403020    -0.05520000
opls_142-112    C    0.06692014    0.51399009    0.49227993    0.07640000
opls_531-113    C    0.62784012    0.33734007    0.50219976    0.38810000
opls_700-114    C    0.60802993    0.36351990    0.50171038    -0.00600000
opls_523-115    C    0.56540993    0.34599993    0.53303043    -0.11270000
opls_145-116    C    0.54644013    0.37029010    0.53301000    -0.15970000
opls_145-117    C    0.56943994    0.41304006    0.49932966    0.20860000
opls_145-118    C    0.61218001    0.43059011    0.46910998    -0.15970000
opls_523-119    C    0.63120003    0.40627989    0.47058005    -0.11160000
opls_145-120    C    0.45211995    0.43696984    0.49310982    -0.22390000
opls_166-121    C    0.43449998    0.46262007    0.49616964    0.30140000
opls_700-122    C    0.46181008    0.50707010    0.49403020    -0.05520000
opls_142-123    C    0.44521008    0.53498009    0.49227993    0.07640000
opls_531-124    C    0.62185998    0.27254999    0.50219976    0.38810000
opls_700-125    C    0.59567994    0.22656002    0.50171038    -0.00600000
opls_523-126    C    0.61319999    0.20146009    0.53303043    -0.11270000
opls_145-127    C    0.58891000    0.15819995    0.53301000    -0.15710000
opls_145-128    C    0.54615989    0.13844999    0.49932966    0.20860000
opls_145-129    C    0.52860990    0.16363986    0.46910998    -0.16040000
opls_523-130    C    0.55291000    0.20695985    0.47058005    -0.11160000
opls_145-131    C    0.52222986    0.99719998    0.49310982    -0.22390000
opls_166-132    C    0.49657980    0.95392981    0.49616964    0.30140000
opls_700-133    C    0.45212989    0.93678997    0.49403020    -0.05520000
opls_142-134    C    0.42421994    0.89228008    0.49227993    0.07640000
opls_531-135    C    0.27091996    0.62946985    0.50219976    0.38810000
opls_700-136    C    0.22493002    0.60967006    0.50171038    -0.00600000
opls_523-137    C    0.19982991    0.56704984    0.53303043    -0.11280000
opls_145-138    C    0.15655996    0.54806985    0.53301000    -0.15790000
opls_145-139    C    0.13680992    0.57106984    0.49932966    0.20910000
opls_145-140    C    0.16200994    0.61381009    0.46910998    -0.16040000
opls_523-141    C    0.20532991    0.63282988    0.47058005    -0.11280000
opls_145-142    C    0.99556007    0.45374993    0.49310982    -0.22390000
opls_166-143    C    0.95229993    0.43614002    0.49616964    0.30140000
opls_700-144    C    0.93515006    0.46343986    0.49403020    -0.04110000
opls_142-145    C    0.89065001    0.44685000    0.49227993    0.08300000
opls_531-146    C    0.32972991    0.62348999    0.50219976    0.38810000
opls_700-147    C    0.34954006    0.59731987    0.50171038    -0.00600000
opls_523-148    C    0.39215979    0.61483985    0.53303043    -0.11270000
opls_145-149    C    0.41112989    0.59053996    0.53301000    -0.15710000
opls_145-150    C    0.38813008    0.54779000    0.49932966    0.20920000
opls_145-151    C    0.34538987    0.53024997    0.46910998    -0.16040000
opls_523-152    C    0.32635994    0.55453983    0.47058005    -0.11310000
opls_145-153    C    0.50544991    0.52385990    0.49310982    -0.22100000
opls_166-154    C    0.52306000    0.49820999    0.49616964    0.30140000
opls_700-155    C    0.49575994    0.45375996    0.49403020    -0.04110000
opls_142-156    C    0.51234991    0.42584997    0.49227993    0.08550000
opls_531-157    C    0.33570000    0.68828007    0.50219976    0.38810000
opls_700-158    C    0.36188994    0.73428007    0.50171038    -0.00600000
opls_523-159    C    0.34436989    0.75938000    0.53303043    -0.11270000
opls_145-160    C    0.36865999    0.80263983    0.53301000    -0.15970000
opls_145-161    C    0.41140999    0.82239010    0.49932966    0.20920000
opls_145-162    C    0.42894992    0.79718989    0.46910998    -0.15970000
opls_523-163    C    0.40464996    0.75385987    0.47058005    -0.11160000
opls_145-164    C    0.43533986    0.96363980    0.49310982    -0.22100000
opls_166-165    C    0.46099007    0.00689994    0.49616964    0.30140000
opls_700-166    C    0.50543999    0.02405012    0.49403020    -0.04110000
opls_142-167    C    0.53335008    0.06854998    0.49227993    0.08300000
opls_531-168    C    0.66863992    0.35528999    0.83553958    0.38810000
opls_700-169    C    0.64883001    0.38146983    0.83505020    -0.00600000
opls_523-170    C    0.60621001    0.36394985    0.86637025    -0.11270000
opls_145-171    C    0.58723994    0.38824002    0.86634982    -0.15970000
opls_145-172    C    0.61024002    0.43098998    0.83267045    0.20860000
opls_145-173    C    0.65298009    0.44854004    0.80244980    -0.15970000
opls_523-174    C    0.67201001    0.42423984    0.80391987    -0.11310000
opls_145-175    C    0.49291992    0.45492008    0.82644964    -0.22390000
opls_166-176    C    0.47530006    0.48057000    0.82951043    0.29990000
opls_700-177    C    0.50260988    0.52502002    0.82737002    -0.05520000
opls_142-178    C    0.48600988    0.55293001    0.82561975    0.07640000
opls_531-179    C    0.66266006    0.29049991    0.83553958    0.38810000
opls_700-180    C    0.63648001    0.24450995    0.83505020    -0.00600000
opls_523-181    C    0.65400006    0.21941001    0.86637025    -0.11270000
opls_145-182    C    0.62970981    0.17614987    0.86634982    -0.15970000
opls_145-183    C    0.58695996    0.15639991    0.83267045    0.20860000
opls_145-184    C    0.56941013    0.18159010    0.80244980    -0.15970000
opls_523-185    C    0.59372014    0.22492012    0.80391987    -0.11160000
opls_145-186    C    0.56302994    0.01514990    0.82644964    -0.22390000
opls_166-187    C    0.53738003    0.97188005    0.82951043    0.30140000
opls_700-188    C    0.49292996    0.95473989    0.82737002    -0.05520000
opls_142-189    C    0.46502002    0.91023001    0.82561975    0.07640000
opls_531-190    C    0.72745014    0.34931013    0.83553958    0.38790000
opls_700-191    C    0.77343994    0.36911995    0.83505020    -0.00600000
opls_523-192    C    0.79853989    0.41173986    0.86637025    -0.11270000
opls_145-193    C    0.84179994    0.43070982    0.86634982    -0.15710000
opls_145-194    C    0.86154998    0.40770983    0.83267045    0.20860000
opls_145-195    C    0.83635989    0.36496990    0.80244980    -0.16040000
opls_523-196    C    0.79304019    0.34595010    0.80391987    -0.11160000
opls_145-197    C    0.00279999    0.52503005    0.82644964    -0.22390000
opls_166-198    C    0.04607002    0.54264999    0.82951043    0.30140000
opls_700-199    C    0.06321000    0.51534012    0.82737002    -0.05520000
opls_142-200    C    0.10771995    0.53194002    0.82561975    0.07640000
opls_531-201    C    0.37052984    0.64144995    0.83553958    0.38810000
opls_700-202    C    0.39033013    0.61526008    0.83505020    -0.00600000
opls_523-203    C    0.43295013    0.63278006    0.86637025    -0.11280000
opls_145-204    C    0.45192996    0.60848989    0.86634982    -0.15790000
opls_145-205    C    0.42892989    0.56573993    0.83267045    0.20920000
opls_145-206    C    0.38618994    0.54819990    0.80244980    -0.16040000
opls_523-207    C    0.36717007    0.57250010    0.80391987    -0.11280000
opls_145-208    C    0.54624999    0.54180983    0.82644964    -0.22390000
opls_166-209    C    0.56386008    0.51615992    0.82951043    0.30140000
opls_700-210    C    0.53656002    0.47170989    0.82737002    -0.04110000
opls_142-211    C    0.55314998    0.44379990    0.82561975    0.08300000
opls_531-212    C    0.37650998    0.70624003    0.83553958    0.38810000
opls_700-213    C    0.40267985    0.75221996    0.83505020    -0.00600000
opls_523-214    C    0.38516007    0.77731990    0.86637025    -0.11280000
opls_145-215    C    0.40945996    0.82059006    0.86634982    -0.15710000
opls_145-216    C    0.45221007    0.84034003    0.83267045    0.20920000
opls_145-217    C    0.46975000    0.81513981    0.80244980    -0.16040000
opls_523-218    C    0.44545994    0.77181982    0.80391987    -0.11310000
opls_145-219    C    0.47614009    0.98159004    0.82644964    -0.22100000
opls_166-220    C    0.50178987    0.02484986    0.82951043    0.30140000
opls_700-221    C    0.54624007    0.04200005    0.82737002    -0.04110000
opls_142-222    C    0.57414989    0.08649990    0.82561975    0.08550000
opls_531-223    C    0.31171992    0.64742009    0.83553958    0.38810000
opls_700-224    C    0.26571993    0.62760996    0.83505020    -0.00600000
opls_523-225    C    0.24061998    0.58499005    0.86637025    -0.11270000
opls_145-226    C    0.19735992    0.56602009    0.86634982    -0.15970000
opls_145-227    C    0.17761016    0.58902008    0.83267045    0.20920000
opls_145-228    C    0.20281001    0.63176001    0.80244980    -0.15970000
opls_523-229    C    0.24613989    0.65078984    0.80391987    -0.11160000
opls_145-230    C    0.03635988    0.47169986    0.82644964    -0.22100000
opls_166-231    C    0.99310001    0.45408995    0.82951043    0.30140000
opls_700-232    C    0.97595002    0.48139010    0.82737002    -0.04110000
opls_142-233    C    0.93145009    0.46479992    0.82561975    0.08300000
opls_167-234    O    0.05294018    0.60745010    0.16665045    -0.40460000
opls_167-235    O    0.41539990    0.48628004    0.16665045    -0.41350000
opls_167-236    O    0.53656998    0.96990985    0.16665045    -0.41350000
opls_167-237    O    0.95033007    0.43497990    0.16665045    -0.41350000
opls_167-238    O    0.58787008    0.55614996    0.16665045    -0.41350000
opls_167-239    O    0.46669985    0.07251984    0.16665045    -0.41350000
opls_167-240    O    0.39254984    0.44548994    0.49997957    -0.40460000
opls_167-241    O    0.51372007    0.92912006    0.49997957    -0.41350000
opls_167-242    O    0.03009012    0.56666000    0.49997957    -0.41350000
opls_167-243    O    0.56501988    0.51534984    0.49997957    -0.41350000
opls_167-244    O    0.44385008    0.03172003    0.49997957    -0.41350000
opls_167-245    O    0.92748003    0.39418009    0.49997957    -0.41360000
opls_167-246    O    0.55450998    0.94705996    0.83332036    -0.40460000
opls_167-247    O    0.07088002    0.58459990    0.83332036    -0.41350000
opls_167-248    O    0.43334002    0.46342984    0.83332036    -0.41350000
opls_167-249    O    0.48464989    0.04966995    0.83332036    -0.41350000
opls_167-250    O    0.96828011    0.41213001    0.83332036    -0.41350000
opls_167-251    O    0.60582012    0.53330007    0.83332036    -0.41350000
opls_526-252    H    0.66909994    0.25753985    0.22592038    0.11260000
opls_146-253    H    0.62594994    0.18039989    0.22818046    0.11230000
opls_146-254    H    0.51831996    0.18912995    0.11038002    0.11210000
opls_526-255    H    0.56207994    0.26720001    0.11351961    0.11260000
opls_146-256    H    0.57897014    0.05115003    0.15773953    0.11220000
opls_144-257    H    0.41337000    0.92232009    0.15203047    0.06880000
opls_168-258    H    0.08309980    0.61305986    0.16692968    0.31280000
opls_526-259    H    0.76530997    0.45236011    0.22592038    0.11260000
opls_146-260    H    0.84245007    0.48634992    0.22818046    0.11230000
opls_146-261    H    0.83371994    0.36998988    0.11038002    0.11210000
opls_526-262    H    0.75564989    0.33568982    0.11351961    0.11260000
opls_146-263    H    0.97169995    0.56861986    0.15773953    0.11200000
opls_144-264    H    0.10053003    0.53185008    0.15203047    0.06880000
opls_168-265    H    0.40978998    0.51084003    0.16692968    0.31280000
opls_526-266    H    0.57048998    0.35375006    0.22592038    0.11260000
opls_146-267    H    0.53648995    0.39689989    0.22818046    0.11150000
opls_146-268    H    0.65285983    0.50452987    0.11038002    0.11220000
opls_526-269    H    0.68715999    0.46076989    0.11351961    0.11260000
opls_146-270    H    0.45423007    0.44388012    0.15773953    0.11200000
opls_144-271    H    0.49099986    0.60947984    0.15203047    0.06880000
opls_168-272    H    0.51200995    0.93974981    0.16692968    0.31280000
opls_526-273    H    0.33416989    0.78488984    0.22592038    0.11260000
opls_146-274    H    0.37730998    0.86203982    0.22818046    0.11150000
opls_146-275    H    0.48493998    0.85330005    0.11038002    0.11220000
opls_526-276    H    0.44118013    0.77524002    0.11351961    0.11260000
opls_146-277    H    0.42429008    0.99127997    0.15773953    0.11230000
opls_144-278    H    0.58989999    0.12010991    0.15203047    0.06880000
opls_168-279    H    0.92017003    0.42936982    0.16692968    0.31280000
opls_526-280    H    0.23795987    0.59007992    0.22592038    0.11260000
opls_146-281    H    0.16081014    0.55608008    0.22818046    0.11230000
opls_146-282    H    0.16954989    0.67243980    0.11038002    0.11220000
opls_526-283    H    0.24761003    0.70674989    0.11351961    0.11260000
opls_146-284    H    0.03157001    0.47381985    0.15773953    0.11200000
opls_144-285    H    0.90273996    0.51057992    0.15203047    0.06850000
opls_168-286    H    0.59347987    0.53160000    0.16692968    0.31280000
opls_526-287    H    0.43276997    0.68867994    0.22592038    0.11260000
opls_146-288    H    0.46676997    0.64553983    0.22818046    0.11230000
opls_146-289    H    0.35040986    0.53790985    0.11038002    0.11210000
opls_526-290    H    0.31609993    0.58166982    0.11351961    0.11260000
opls_146-291    H    0.54902987    0.59854988    0.15773953    0.11200000
opls_144-292    H    0.51226997    0.43294984    0.15203047    0.06880000
opls_168-293    H    0.49124984    0.10267988    0.16692968    0.31280000
opls_526-294    H    0.74246004    0.41155998    0.55925047    0.11260000
opls_146-295    H    0.81960003    0.44555011    0.56150957    0.11230000
opls_146-296    H    0.81086990    0.32919007    0.44371011    0.11220000
opls_526-297    H    0.73279999    0.29487998    0.44684970    0.11260000
opls_146-298    H    0.94884991    0.52782005    0.49106962    0.11220000
opls_144-299    H    0.07768010    0.49104995    0.48535959    0.06880000
opls_168-300    H    0.38694005    0.47003990    0.50025977    0.31280000
opls_526-301    H    0.54764005    0.31294993    0.55925047    0.11260000
opls_146-302    H    0.51364995    0.35610007    0.56150957    0.11230000
opls_146-303    H    0.63001006    0.46373005    0.44371011    0.11220000
opls_526-304    H    0.66431009    0.41996005    0.44684970    0.11260000
opls_146-305    H    0.43137988    0.40308000    0.49106962    0.11200000
opls_144-306    H    0.46815009    0.56868003    0.48535959    0.06880000
opls_168-307    H    0.48915991    0.89895000    0.50025977    0.31280000
opls_526-308    H    0.64624990    0.21674004    0.55925047    0.11260000
opls_146-309    H    0.60310004    0.13959005    0.56150957    0.11150000
opls_146-310    H    0.49547020    0.14833014    0.44371011    0.11220000
opls_526-311    H    0.53922988    0.22638986    0.44684970    0.11260000
opls_146-312    H    0.55611994    0.01034990    0.49106962    0.11220000
opls_144-313    H    0.39052007    0.88151997    0.48535959    0.06880000
opls_168-314    H    0.06025003    0.57226005    0.50025977    0.31280000
opls_526-315    H    0.21511011    0.54928011    0.55925047    0.11260000
opls_146-316    H    0.13796009    0.51526992    0.56150957    0.11150000
opls_146-317    H    0.14670012    0.63163999    0.44371011    0.11220000
opls_526-318    H    0.22476013    0.66594005    0.44684970    0.11260000
opls_146-319    H    0.00872011    0.43301001    0.49106962    0.11230000
opls_144-320    H    0.87988989    0.46978982    0.48535959    0.06880000
opls_168-321    H    0.57062994    0.49079988    0.50025977    0.31280000
opls_526-322    H    0.40992004    0.64787982    0.55925047    0.11260000
opls_146-323    H    0.44392007    0.60472999    0.56150957    0.11230000
opls_146-324    H    0.32756009    0.49711004    0.44371011    0.11220000
opls_526-325    H    0.29325003    0.54085998    0.44684970    0.11260000
opls_146-326    H    0.52618011    0.55775007    0.49106962    0.11200000
opls_144-327    H    0.48942006    0.39216006    0.48535959    0.06850000
opls_168-328    H    0.46840007    0.06188006    0.50025977    0.31280000
opls_526-329    H    0.31132012    0.74409002    0.55925047    0.11260000
opls_146-330    H    0.35446008    0.82122998    0.56150957    0.11230000
opls_146-331    H    0.46209006    0.81249992    0.44371011    0.11210000
opls_526-332    H    0.41832981    0.73442986    0.44684970    0.11260000
opls_146-333    H    0.40144993    0.95047984    0.49106962    0.11200000
opls_144-334    H    0.56705008    0.07932012    0.48535959    0.06880000
opls_168-335    H    0.89731999    0.38857001    0.50025977    0.31280000
opls_526-336    H    0.58843986    0.33089986    0.89259029    0.11260000
opls_146-337    H    0.55445003    0.37405000    0.89485037    0.11230000
opls_146-338    H    0.67080986    0.48167998    0.77704993    0.11220000
opls_526-339    H    0.70512007    0.43792000    0.78018952    0.11260000
opls_146-340    H    0.47217995    0.42102992    0.82441041    0.11220000
opls_144-341    H    0.50894990    0.58662996    0.81870038    0.06880000
opls_168-342    H    0.52995999    0.91689992    0.83359959    0.31280000
opls_526-343    H    0.68704998    0.23468996    0.89259029    0.11260000
opls_146-344    H    0.64389998    0.15755001    0.89485037    0.11230000
opls_146-345    H    0.53627000    0.16628006    0.77704993    0.11210000
opls_526-346    H    0.58004002    0.24435012    0.78018952    0.11260000
opls_146-347    H    0.59692017    0.02830014    0.82441041    0.11220000
opls_144-348    H    0.43131988    0.89946989    0.81870038    0.06880000
opls_168-349    H    0.10105011    0.59020998    0.83359959    0.31280000
opls_526-350    H    0.78325985    0.42950990    0.89259029    0.11260000
opls_146-351    H    0.86041001    0.46351006    0.89485037    0.11150000
opls_146-352    H    0.85166998    0.34714000    0.77704993    0.11220000
opls_526-353    H    0.77360997    0.31283994    0.78018952    0.11260000
opls_146-354    H    0.98964999    0.54576997    0.82441041    0.11200000
opls_144-355    H    0.11847991    0.50899988    0.81870038    0.06880000
opls_168-356    H    0.42773986    0.48798982    0.83359959    0.31280000
opls_526-357    H    0.45072000    0.66583005    0.89259029    0.11260000
opls_146-358    H    0.48473005    0.62268994    0.89485037    0.11150000
opls_146-359    H    0.36835990    0.51505996    0.77704993    0.11220000
opls_526-360    H    0.33406001    0.55881993    0.78018952    0.11260000
opls_146-361    H    0.56699008    0.57571002    0.82441041    0.11230000
opls_144-362    H    0.53020996    0.41009995    0.81870038    0.06880000
opls_168-363    H    0.50919987    0.07982999    0.83359959    0.31280000
opls_526-364    H    0.35211993    0.76203995    0.89259029    0.11260000
opls_146-365    H    0.39527006    0.83918993    0.89485037    0.11230000
opls_146-366    H    0.50288986    0.83044985    0.77704993    0.11220000
opls_526-367    H    0.45913979    0.75238981    0.78018952    0.11260000
opls_146-368    H    0.44225016    0.96843008    0.82441041    0.11200000
opls_144-369    H    0.60783999    0.09726002    0.81870038    0.06850000
opls_168-370    H    0.93812006    0.40651994    0.83359959    0.31280000
opls_526-371    H    0.25590991    0.56723004    0.89259029    0.11260000
opls_146-372    H    0.17877007    0.53322988    0.89485037    0.11230000
opls_146-373    H    0.18749993    0.64958991    0.77704993    0.11220000
opls_526-374    H    0.26557011    0.68390000    0.78018952    0.11260000
opls_146-375    H    0.04952005    0.45096996    0.82441041    0.11200000
opls_144-376    H    0.92067995    0.48773003    0.81870038    0.06880000
opls_168-377    H    0.61143018    0.50875011    0.83359959    0.31280000
