#======================================================================
# Crystal Data Generated By AuToFF
#----------------------------------------------------------------------

data_AuToFF_phase_1

_cell_length_a                         52.2000
_cell_length_b                         52.2000
_cell_length_c                         6.8000
_cell_angle_alpha                      90.00
_cell_angle_beta                       90.00
_cell_angle_gamma                      120.00
_symmetry_space_group_name_H-M_alt     'P 1'
_symmetry_space_group_IT_number        1

loop_
_space_group_symop_operation_xyz
   'x, y, z'

loop_
   _atom_site_label
   _atom_site_type_symbol
   _atom_site_fract_x
   _atom_site_fract_y
   _atom_site_fract_z
   _atom_site_charge
opls_166-0    C    0.14261002    0.38485989    0.99968971    0.17400000
opls_166-1    C    0.11574993    0.35788989    0.99973971    0.17980000
opls_145-2    C    0.11489003    0.33090994    0.99978971    -0.23780000
opls_700-3    C    0.14226003    0.33105992    0.99958971    0.03310000
opls_700-4    C    0.16968992    0.35856988    0.99956029    0.03500000
opls_145-5    C    0.16967001    0.38587987    0.99971029    -0.23380000
opls_700-6    C    0.14230001    0.30301994    0.99952059    0.03300000
opls_700-7    C    0.16975002    0.30300003    0.99996029    0.03300000
opls_700-8    C    0.19776003    0.33105992    0.99996029    0.03300000
opls_700-9    C    0.19776005    0.35854002    0.99951029    0.03840000
opls_145-10    C    0.22496991    0.33089998    0.00027059    -0.18790000
opls_166-11    C    0.25102004    0.35787993    0.99981029    0.18000000
opls_166-12    C    0.25105993    0.38480989    0.99917059    0.18060000
opls_145-13    C    0.22503995    0.38584005    0.99910000    -0.23630000
opls_145-14    C    0.11497997    0.27575994    0.99910000    -0.18790000
opls_166-15    C    0.11598994    0.24974003    0.99912941    0.18130000
opls_166-16    C    0.14290009    0.24973007    0.99976029    0.17980000
opls_145-17    C    0.16990000    0.27578007    0.00022941    -0.23320000
opls_145-18    C    0.08927987    0.17020992    0.99915000    -0.22920000
opls_145-19    C    0.33056002    0.41095988    0.99926029    -0.22920000
opls_145-20    C    0.08867001    0.41045995    0.99996029    -0.22920000
opls_145-21    C    0.05819001    0.15500991    0.99852059    -0.04780000
opls_145-22    C    0.04172997    0.12423006    0.99845000    -0.17610000
opls_145-23    C    0.05637995    0.10763998    0.99906029    0.18820000
opls_145-24    C    0.08762997    0.12264003    0.99975000    -0.17090000
opls_145-25    C    0.10361999    0.15345991    0.99977941    -0.05940000
opls_145-26    C    0.34656996    0.39584989    0.99991029    -0.04970000
opls_145-27    C    0.37737994    0.41103995    0.99991029    -0.17430000
opls_145-28    C    0.39315002    0.44230004    0.99923971    0.18820000
opls_145-29    C    0.37732989    0.45772989    0.99861029    -0.17350000
opls_145-30    C    0.34650998    0.44204985    0.99865000    -0.04480000
opls_145-31    C    0.10287995    0.44153002    0.99992059    -0.05940000
opls_145-32    C    0.08684003    0.45632987    0.99992941    -0.17470000
opls_916-33    C    0.05557994    0.44004992    0.99997941    0.19050000
opls_145-34    C    0.04101993    0.40880997    0.00003971    -0.17210000
opls_145-35    C    0.05757991    0.39454986    0.00003971    -0.04690000
opls_234-36    C    0.44286009    0.44506999    0.99968971    0.46180000
opls_234-37    C    0.44289006    0.48971996    0.99880000    0.45840000
opls_145-38    C    0.94388995    0.89257990    0.99883971    0.17670000
opls_145-39    C    0.91265001    0.87730998    0.99822059    -0.17600000
opls_145-40    C    0.89693996    0.84647992    0.99823971    -0.04760000
opls_145-41    C    0.91148984    0.82993983    0.99883971    -0.22920000
opls_145-42    C    0.94259003    0.84540994    0.99947059    -0.04970000
opls_145-43    C    0.95879997    0.87622983    0.99947059    -0.17320000
opls_166-44    C    0.85771005    0.75044999    0.99825000    0.18080000
opls_166-45    C    0.88455995    0.75033983    0.99907941    0.18000000
opls_145-46    C    0.83062987    0.72441990    0.99792059    -0.23830000
opls_700-47    C    0.83059998    0.69709995    0.99830000    0.03470000
opls_700-48    C    0.85804989    0.69704996    0.99900000    0.03300000
opls_145-49    C    0.88542988    0.72422988    0.99952059    -0.18790000
opls_700-50    C    0.80252990    0.66900999    0.99827941    0.03080000
opls_700-51    C    0.80251992    0.64152989    0.99896029    0.03310000
opls_700-52    C    0.83056993    0.64150998    0.99912059    0.03300000
opls_700-53    C    0.85800987    0.66897990    0.99912941    0.03300000
opls_145-54    C    0.83047001    0.61416990    0.99917941    -0.23320000
opls_166-55    C    0.85750989    0.61518989    0.99902941    0.18020000
opls_166-56    C    0.88437985    0.64211984    0.99902059    0.18240000
opls_145-57    C    0.88535996    0.66912988    0.99917941    -0.19620000
opls_145-58    C    0.77525000    0.66903985    0.99785000    -0.23720000
opls_166-59    C    0.74919001    0.64199995    0.99813971    0.17980000
opls_166-60    C    0.74921985    0.61509985    0.99897941    0.18000000
opls_145-61    C    0.77529989    0.61417985    0.99943971    -0.23320000
opls_145-62    C    0.91123995    0.58946993    0.99872059    -0.22820000
opls_145-63    C    0.89691986    0.55838991    0.99872941    -0.04690000
opls_145-64    C    0.91295996    0.54361992    0.99862941    -0.17350000
opls_916-65    C    0.94420003    0.55992995    0.99852059    0.18350000
opls_145-66    C    0.95882001    0.59116990    0.99850000    -0.17180000
opls_145-67    C    0.94232994    0.60543997    0.99862059    -0.04180000
opls_145-68    C    0.66967007    0.58877998    0.99867059    -0.22920000
opls_145-69    C    0.65388003    0.60408994    0.99806029    -0.04640000
opls_145-70    C    0.62307004    0.58916997    0.99802059    -0.17610000
opls_145-71    C    0.60704010    0.55793002    0.99862059    0.17670000
opls_145-72    C    0.62263993    0.54225993    0.99926029    -0.17210000
opls_145-73    C    0.65348006    0.55769001    0.99928971    -0.04690000
opls_700-74    C    0.47436995    0.46961999    0.99961029    -0.02270000
opls_700-75    C    0.47444000    0.49661985    0.99901029    -0.08420000
opls_145-76    C    0.50060988    0.46836995    0.00000000    -0.06600000
opls_234-77    C    0.00811999    0.05872006    0.99856029    0.45980000
opls_234-78    C    0.05198014    0.05721010    0.99947059    0.46180000
opls_234-79    C    0.94749992    0.94297992    0.99843971    0.45930000
opls_234-80    C    0.99152997    0.94177987    0.99936029    0.46190000
opls_700-81    C    0.00023998    0.02688992    0.99873971    -0.04510000
opls_700-82    C    0.02675996    0.02601991    0.99935000    -0.02230000
opls_145-83    C    0.97241995    0.00102994    0.99845000    -0.13520000
opls_700-84    C    0.97266003    0.97425991    0.99867059    -0.04480000
opls_700-85    C    0.99922990    0.97345981    0.99928971    -0.02770000
opls_145-86    C    0.02704995    0.99927002    0.99972059    -0.14260000
opls_252-87    C    0.99234001    0.55931986    0.99837059    0.46020000
opls_252-88    C    0.94853999    0.51378993    0.99847941    0.46020000
opls_261-89    C    0.02828007    0.53769002    0.99843971    -0.18670000
opls_700-90    C    0.00034994    0.53546003    0.99841029    -0.06180000
opls_261-91    C    0.97392004    0.50797993    0.99846029    -0.09260000
opls_252-92    C    0.00735998    0.44080003    0.00006029    0.46490000
opls_252-93    C    0.05114008    0.48631005    0.99997059    0.46020000
opls_700-94    C    0.99936988    0.46460987    0.00012941    -0.06640000
opls_261-95    C    0.02579997    0.49208997    0.00007941    -0.09630000
opls_261-96    C    0.97143009    0.46239006    0.00026029    -0.18670000
opls_234-97    C    0.55707003    0.51117991    0.99907941    0.46120000
opls_234-98    C    0.55741005    0.55596990    0.99820000    0.45940000
opls_700-99    C    0.52566998    0.50443996    0.99900000    -0.08440000
opls_700-100    C    0.52580996    0.53149003    0.99837941    -0.04480000
opls_145-101    C    0.49953995    0.53268986    0.99815000    -0.06600000
opls_166-102    C    0.15666994    0.36873987    0.50012941    0.17980000
opls_166-103    C    0.12981991    0.34179000    0.50013971    0.18160000
opls_145-104    C    0.12886986    0.31479988    0.49997941    -0.19950000
opls_700-105    C    0.15623997    0.31498989    0.50002941    0.03320000
opls_700-106    C    0.18365990    0.34247995    0.50003971    0.03300000
opls_145-107    C    0.18373002    0.36979989    0.49997941    -0.18790000
opls_700-108    C    0.15623990    0.28694992    0.50016029    0.03300000
opls_700-109    C    0.18368004    0.28689992    0.50086029    0.03470000
opls_700-110    C    0.21175003    0.31501002    0.50087941    0.03500000
opls_700-111    C    0.21172005    0.34247995    0.50020000    0.03310000
opls_145-112    C    0.23905002    0.31502993    0.50131029    -0.23850000
opls_166-113    C    0.26509000    0.34209991    0.50102059    0.17980000
opls_166-114    C    0.26502002    0.36896993    0.50017941    0.18020000
opls_145-115    C    0.23891996    0.36984989    0.49972059    -0.18790000
opls_145-116    C    0.12886009    0.25976999    0.49963971    -0.18790000
opls_166-117    C    0.12973002    0.23367000    0.50007941    0.18130000
opls_166-118    C    0.15656997    0.23353993    0.50092059    0.17820000
opls_145-119    C    0.18364995    0.25957998    0.50123971    -0.23380000
opls_145-120    C    0.10268002    0.15406004    0.50032941    -0.22920000
opls_145-121    C    0.34458992    0.39544995    0.50048971    -0.22920000
opls_145-122    C    0.10284995    0.39436006    0.50043971    -0.22920000
opls_145-123    C    0.07158002    0.13867997    0.49968971    -0.04500000
opls_145-124    C    0.05528004    0.10786008    0.49970000    -0.17210000
opls_145-125    C    0.07010003    0.09141998    0.50032941    0.17670000
opls_145-126    C    0.10134008    0.10661004    0.50093971    -0.17350000
opls_145-127    C    0.11713986    0.13743988    0.50092941    -0.04690000
opls_145-128    C    0.36044997    0.38020989    0.50111029    -0.04640000
opls_145-129    C    0.39125995    0.39519999    0.50115000    -0.17610000
opls_145-130    C    0.40722993    0.42644990    0.50053971    0.17670000
opls_145-131    C    0.39155998    0.44204985    0.49990000    -0.17470000
opls_145-132    C    0.36071996    0.42654988    0.49987059    -0.04690000
opls_145-133    C    0.11712990    0.42542991    0.50042941    -0.04480000
opls_145-134    C    0.10106001    0.44015986    0.50052941    -0.17600000
opls_916-135    C    0.06980999    0.42381001    0.50065000    0.18350000
opls_145-136    C    0.05522009    0.39257006    0.50066029    -0.17120000
opls_145-137    C    0.07175009    0.37834003    0.50055000    -0.04390000
opls_234-138    C    0.45687999    0.42847991    0.50096029    0.45980000
opls_234-139    C    0.45717997    0.47325995    0.50007941    0.46170000
opls_145-140    C    0.95761003    0.87635990    0.50010000    0.18820000
opls_145-141    C    0.92634996    0.86128000    0.49941029    -0.17040000
opls_145-142    C    0.91046003    0.83044994    0.49938971    -0.05050000
opls_145-143    C    0.92489000    0.81378995    0.50001029    -0.22920000
opls_145-144    C    0.95598004    0.82908000    0.50063971    -0.04120000
opls_145-145    C    0.97233989    0.85985985    0.50071029    -0.17180000
opls_166-146    C    0.87138003    0.73427003    0.49940000    0.17980000
opls_166-147    C    0.89828989    0.73425985    0.50002941    0.18050000
opls_145-148    C    0.84437994    0.70822003    0.49892941    -0.18790000
opls_700-149    C    0.84453000    0.68099985    0.49921029    0.03300000
opls_700-150    C    0.87198001    0.68097994    0.49963971    0.03310000
opls_145-151    C    0.89930005    0.70822998    0.50006029    -0.23320000
opls_700-152    C    0.81651001    0.65295987    0.49920000    0.03300000
opls_700-153    C    0.81648004    0.62547004    0.49965000    0.03840000
opls_700-154    C    0.84454010    0.62542004    0.49960000    0.03500000
opls_700-155    C    0.87199000    0.65290988    0.49957059    0.03880000
opls_145-156    C    0.84453001    0.59809988    0.49946029    -0.23380000
opls_166-157    C    0.87157010    0.59908004    0.49947059    0.16990000
opls_166-158    C    0.89845001    0.62602991    0.49942059    0.17980000
opls_145-159    C    0.89934010    0.65302004    0.49937059    -0.23780000
opls_145-160    C    0.78933999    0.65317002    0.49888971    -0.19640000
opls_166-161    C    0.76325997    0.62620997    0.49935000    0.18000000
opls_166-162    C    0.76316998    0.59924993    0.49998971    0.18000000
opls_145-163    C    0.78918001    0.59817995    0.50006029    -0.23780000
opls_145-164    C    0.92541001    0.57335987    0.49920000    -0.22920000
opls_145-165    C    0.91117011    0.54229002    0.49923971    -0.05940000
opls_145-166    C    0.92716997    0.52744991    0.49923971    -0.17470000
opls_916-167    C    0.95843008    0.54369004    0.49917941    0.18000000
opls_145-168    C    0.97302994    0.57492999    0.49912941    -0.17320000
opls_145-169    C    0.95650998    0.58922992    0.49912941    -0.04760000
opls_145-170    C    0.68369997    0.57328001    0.49990000    -0.22840000
opls_145-171    C    0.66776999    0.58844994    0.49926029    -0.04500000
opls_145-172    C    0.63695006    0.57333000    0.49925000    -0.17430000
opls_145-173    C    0.62112002    0.54206992    0.49992059    0.18820000
opls_145-174    C    0.63687999    0.52657990    0.50055000    -0.17610000
opls_145-175    C    0.66769004    0.54219003    0.50051029    -0.04540000
opls_700-176    C    0.48847003    0.45297991    0.50077941    -0.04510000
opls_700-177    C    0.48860005    0.48002999    0.50017059    -0.08420000
opls_145-178    C    0.51472997    0.45177986    0.50101029    -0.06610000
opls_234-179    C    0.02238998    0.04226005    0.49980000    0.46180000
opls_234-180    C    0.06638010    0.04100005    0.50072059    0.45980000
opls_234-181    C    0.96189988    0.92676987    0.49968971    0.46180000
opls_234-182    C    0.00579997    0.92531986    0.50061029    0.45960000
opls_700-183    C    0.01463995    0.01055002    0.49987059    -0.02630000
opls_700-184    C    0.04120006    0.00973996    0.50050000    -0.02320000
opls_145-185    C    0.98681991    0.98472986    0.49943971    -0.14260000
opls_700-186    C    0.98709994    0.95797996    0.49982059    -0.02170000
opls_700-187    C    0.01362988    0.95712987    0.50042059    -0.02310000
opls_145-188    C    0.04143995    0.98297989    0.50071029    -0.15210000
opls_252-189    C    0.00662006    0.54288993    0.49910000    0.46230000
opls_252-190    C    0.96283010    0.49740004    0.49918971    0.45980000
opls_261-191    C    0.04253004    0.52128996    0.49890000    -0.18670000
opls_700-192    C    0.01458994    0.51906992    0.49902941    -0.06740000
opls_261-193    C    0.98815996    0.49159004    0.49907941    -0.09630000
opls_252-194    C    0.02163992    0.42436989    0.50078971    0.46020000
opls_252-195    C    0.06541994    0.46990999    0.50068971    0.46490000
opls_700-196    C    0.01360999    0.44821998    0.50075000    -0.06330000
opls_261-197    C    0.04004008    0.47571004    0.50070000    -0.09280000
opls_261-198    C    0.98568005    0.44599995    0.50072941    -0.18670000
opls_234-199    C    0.57135995    0.49471990    0.50036029    0.45980000
opls_234-200    C    0.57143006    0.53939000    0.49947059    0.46180000
opls_700-201    C    0.53982992    0.48784987    0.50015000    -0.08410000
opls_700-202    C    0.53991004    0.51484996    0.49956029    -0.02460000
opls_145-203    C    0.51365996    0.51610000    0.49916029    -0.06600000
opls_167-204    O    0.28008002    0.36369989    0.99992941    -0.31510000
opls_167-205    O    0.28016001    0.40795987    0.99886029    -0.31310000
opls_167-206    O    0.13653990    0.40795987    0.99981029    -0.31270000
opls_167-207    O    0.09247993    0.36363994    0.99988971    -0.31100000
opls_167-208    O    0.09279999    0.22069997    0.99880000    -0.30530000
opls_167-209    O    0.13699003    0.22061990    0.99983971    -0.31300000
opls_236-210    O    0.43460991    0.41870986    0.00001029    -0.35540000
opls_236-211    O    0.43441998    0.50753995    0.99837941    -0.33560000
opls_167-212    O    0.86375995    0.77959998    0.99806029    -0.31320000
opls_167-213    O    0.90782999    0.77935002    0.99945000    -0.30540000
opls_167-214    O    0.86346000    0.59202996    0.99893971    -0.31010000
opls_167-215    O    0.90761996    0.63633993    0.99892059    -0.30530000
opls_167-216    O    0.72011012    0.63607005    0.99792941    -0.30530000
opls_167-217    O    0.72014995    0.59188993    0.99932059    -0.31390000
opls_236-218    O    0.99088991    0.06793001    0.99812941    -0.33450000
opls_236-219    O    0.07814998    0.06468999    0.99982059    -0.36260000
opls_236-220    O    0.00909998    0.93282984    0.99968971    -0.35880000
opls_236-221    O    0.92135989    0.93510982    0.99801029    -0.33340000
opls_236-222    O    0.92244000    0.49519992    0.99850000    -0.33380000
opls_236-223    O    0.00959995    0.58578993    0.99828971    -0.33380000
opls_236-224    O    0.99013998    0.41429988    0.00002059    -0.34880000
opls_236-225    O    0.07725999    0.50483990    0.99983971    -0.33380000
opls_236-226    O    0.56525997    0.49300002    0.99937941    -0.36330000
opls_236-227    O    0.56603005    0.58228999    0.99780000    -0.33600000
opls_167-228    O    0.29419997    0.34808002    0.50122941    -0.31510000
opls_167-229    O    0.29405994    0.39221989    0.49985000    -0.31390000
opls_167-230    O    0.15067998    0.39187989    0.50022059    -0.31320000
opls_167-231    O    0.10656007    0.34754006    0.50023971    -0.30810000
opls_167-232    O    0.10643998    0.20466999    0.49972059    -0.30810000
opls_167-233    O    0.15048999    0.20437999    0.50110000    -0.31320000
opls_236-234    O    0.44829994    0.40217995    0.50136029    -0.33370000
opls_236-235    O    0.44895001    0.49140003    0.49977941    -0.35880000
opls_167-236    O    0.87726996    0.76335985    0.49932059    -0.31450000
opls_167-237    O    0.92146998    0.76332003    0.50036029    -0.31390000
opls_167-238    O    0.87760009    0.57594002    0.49935000    -0.31390000
opls_167-239    O    0.92169003    0.62022987    0.49927059    -0.31390000
opls_167-240    O    0.73422996    0.62044997    0.49923971    -0.31390000
opls_167-241    O    0.73406004    0.57614000    0.50030000    -0.31510000
opls_236-242    O    0.00484996    0.05126007    0.49947059    -0.36330000
opls_236-243    O    0.09250997    0.04881994    0.50115000    -0.33340000
opls_236-244    O    0.02306999    0.91615990    0.50103971    -0.33560000
opls_236-245    O    0.93571989    0.91922981    0.49932941    -0.34730000
opls_236-246    O    0.93669993    0.47887993    0.49932059    -0.33190000
opls_236-247    O    0.02385987    0.56938986    0.49913971    -0.33920000
opls_236-248    O    0.00440998    0.39790004    0.50087941    -0.32870000
opls_236-249    O    0.09151992    0.48851991    0.50066029    -0.33190000
opls_236-250    O    0.57979000    0.47687005    0.50077941    -0.33600000
opls_236-251    O    0.57971997    0.56574990    0.49915000    -0.36260000
MOF2_B_2-252    B    0.29745990    0.39447996    0.99931029    0.62340000
MOF2_B_2-253    B    0.10575005    0.39441006    0.99987941    0.62340000
MOF2_B_2-254    B    0.10620002    0.20331001    0.99922941    0.62340000
MOF2_B_2-255    B    0.89455007    0.79683002    0.99877941    0.62340000
MOF2_B_2-256    B    0.89424985    0.60555986    0.99883971    0.62340000
MOF2_B_2-257    B    0.70278005    0.60528999    0.99862941    0.62340000
MOF2_B_2-258    B    0.31148004    0.37887004    0.50052941    0.62340000
MOF2_B_2-259    B    0.11989003    0.37830995    0.50032059    0.62340000
MOF2_B_2-260    B    0.11969998    0.18717008    0.50038971    0.62340000
MOF2_B_2-261    B    0.90804992    0.78068987    0.49992941    0.62340000
MOF2_B_2-262    B    0.90838995    0.58945997    0.49927941    0.62340000
MOF2_B_2-263    B    0.71679989    0.58967985    0.49985000    0.62340000
opls_542-264    N    0.42481003    0.45823999    0.99925000    -0.18830000
opls_251-265    N    0.96090996    0.54502989    0.99847059    -0.20020000
opls_542-266    N    0.03965004    0.07601004    0.99903971    -0.19220000
opls_542-267    N    0.96024994    0.92427997    0.99887941    -0.18820000
opls_251-268    N    0.03883006    0.45500993    0.00002059    -0.19580000
opls_542-269    N    0.57533992    0.54236987    0.99863971    -0.18720000
opls_542-270    N    0.43892991    0.44204985    0.50052059    -0.18720000
opls_251-271    N    0.97515994    0.52869995    0.49915000    -0.19580000
opls_542-272    N    0.05367999    0.05973009    0.50027941    -0.18720000
opls_542-273    N    0.97426993    0.90800002    0.50012059    -0.18830000
opls_251-274    N    0.05308003    0.43867999    0.50068971    -0.20080000
opls_542-275    N    0.58945990    0.52618991    0.49991029    -0.18830000
opls_146-276    H    0.09338001    0.31045006    0.00016029    0.09260000
opls_146-277    H    0.19009002    0.40742986    0.99998971    0.09560000
opls_146-278    H    0.22602990    0.31043989    0.00092941    0.09500000
opls_146-279    H    0.22615000    0.40739004    0.99878971    0.08520000
opls_146-280    H    0.09342995    0.27463997    0.99880000    0.08660000
opls_146-281    H    0.19034000    0.27468001    0.00087059    0.08760000
opls_146-282    H    0.04688011    0.16801002    0.99812059    0.12630000
opls_146-283    H    0.01749005    0.11319006    0.99795000    0.08830000
opls_146-284    H    0.09962001    0.11034999    0.00023971    0.10410000
opls_146-285    H    0.12795002    0.16509009    0.00035000    0.10180000
opls_146-286    H    0.33424008    0.37152000    0.00046029    0.12630000
opls_146-287    H    0.38906004    0.39844000    0.00042059    0.09360000
opls_146-288    H    0.38900999    0.48200006    0.99812059    0.09110000
opls_146-289    H    0.33411988    0.45398994    0.99822941    0.12630000
opls_146-290    H    0.12719993    0.45429985    0.99995000    0.12630000
opls_146-291    H    0.09875998    0.48060999    0.99990000    0.10410000
opls_146-292    H    0.01678004    0.39550990    0.00011029    0.08730000
opls_146-293    H    0.04625998    0.37023987    0.00016029    0.10820000
opls_146-294    H    0.90050997    0.88943987    0.99773971    0.08580000
opls_146-295    H    0.87260995    0.83461991    0.99782941    0.08650000
opls_146-296    H    0.95418000    0.83267992    0.99998971    0.10820000
opls_146-297    H    0.98304995    0.88739990    0.99997059    0.09110000
opls_146-298    H    0.81022999    0.72558987    0.99747059    0.09500000
opls_146-299    H    0.90693002    0.72527000    0.00040000    0.09470000
opls_146-300    H    0.81005000    0.59261992    0.99937059    0.09560000
opls_146-301    H    0.90688991    0.68955989    0.99936029    0.10200000
opls_146-302    H    0.77414998    0.68948004    0.99738971    0.08760000
opls_146-303    H    0.77422998    0.59265995    0.00031029    0.09330000
opls_146-304    H    0.87259000    0.54570988    0.99888971    0.10180000
opls_146-305    H    0.90106005    0.51934002    0.99866029    0.10410000
opls_146-306    H    0.98305999    0.60441003    0.99842941    0.09110000
opls_146-307    H    0.95356999    0.62974995    0.99867941    0.08650000
opls_146-308    H    0.66641999    0.62842005    0.99765000    0.12870000
opls_146-309    H    0.61154003    0.60190995    0.99752059    0.08710000
opls_146-310    H    0.61083006    0.51798004    0.99976029    0.10410000
opls_146-311    H    0.66560994    0.54549000    0.99982059    0.12630000
opls_146-312    H    0.50052001    0.44725994    0.00065000    0.12250000
opls_146-313    H    0.95172001    0.00172011    0.99811029    0.06790000
opls_146-314    H    0.04776991    0.99859998    0.00037941    0.11390000
MOF2_H_-315    H    0.04887010    0.55918006    0.99857941    0.06790000
MOF2_H_-316    H    0.95080000    0.44092988    0.00048971    0.11470000
opls_146-317    H    0.49962005    0.55377995    0.99782059    0.07060000
opls_146-318    H    0.10734988    0.29435991    0.49980000    0.09470000
opls_146-319    H    0.20413002    0.39137001    0.49980000    0.09500000
opls_146-320    H    0.24018004    0.29459992    0.50177059    0.08520000
opls_146-321    H    0.23994984    0.39134988    0.49885000    0.09260000
opls_146-322    H    0.10735000    0.25871992    0.49876029    0.09330000
opls_146-323    H    0.20405998    0.25841997    0.50168971    0.08660000
opls_146-324    H    0.06007002    0.15147989    0.49917059    0.11390000
opls_146-325    H    0.03102996    0.09675991    0.49918971    0.08710000
opls_146-326    H    0.11341000    0.09441003    0.50142941    0.08580000
opls_146-327    H    0.14146998    0.14922004    0.50133971    0.12870000
opls_146-328    H    0.34797008    0.35588000    0.50152059    0.08650000
opls_146-329    H    0.40284006    0.38251996    0.50165000    0.08520000
opls_146-330    H    0.40331997    0.46632997    0.49940000    0.09530000
opls_146-331    H    0.34853999    0.43868994    0.49933971    0.11150000
opls_146-332    H    0.14145009    0.43814002    0.50027059    0.10820000
opls_146-333    H    0.11291999    0.46443003    0.50050000    0.08830000
opls_146-334    H    0.03099007    0.37930007    0.50072941    0.08900000
opls_146-335    H    0.06055008    0.35403005    0.50048971    0.12870000
opls_146-336    H    0.91429996    0.87349991    0.49892059    0.08580000
opls_146-337    H    0.88612991    0.81873990    0.49882059    0.12870000
opls_146-338    H    0.96736006    0.81615001    0.50103971    0.11060000
opls_146-339    H    0.99658996    0.87096997    0.50121029    0.08730000
opls_146-340    H    0.82395008    0.70933005    0.49828971    0.09560000
opls_146-341    H    0.92084988    0.70935991    0.50036029    0.09560000
opls_146-342    H    0.82408989    0.57654989    0.49917059    0.08520000
opls_146-343    H    0.92085988    0.67347992    0.49901029    0.09500000
opls_146-344    H    0.78830000    0.67363985    0.49822941    0.09500000
opls_146-345    H    0.78802993    0.57662001    0.50037059    0.09560000
opls_146-346    H    0.88685001    0.52953987    0.49920000    0.12630000
opls_146-347    H    0.91522006    0.50317001    0.49926029    0.10410000
opls_146-348    H    0.99726991    0.58820993    0.49906029    0.08730000
opls_146-349    H    0.96785999    0.61353990    0.49901029    0.10820000
opls_146-350    H    0.68014003    0.61278006    0.49871029    0.12630000
opls_146-351    H    0.62533001    0.58597995    0.49873971    0.08730000
opls_146-352    H    0.62514003    0.50230995    0.50103971    0.09110000
opls_146-353    H    0.68002009    0.53019000    0.50093971    0.12630000
opls_146-354    H    0.51465994    0.43068999    0.50135000    0.11660000
opls_146-355    H    0.96609994    0.98540985    0.49877941    0.10820000
opls_146-356    H    0.06214000    0.98227999    0.50105000    0.07230000
MOF2_H_-357    H    0.06316001    0.54274991    0.49867941    0.11470000
MOF2_H_-358    H    0.96509002    0.42449996    0.50057941    0.07230000
opls_146-359    H    0.51375002    0.53721000    0.49851029    0.12250000
