#======================================================================
# Crystal Data Generated By AuToFF
#----------------------------------------------------------------------

data_AuToFF_phase_1

_cell_length_a                         16.1800
_cell_length_b                         16.1800
_cell_length_c                         8.0000
_cell_angle_alpha                      90.00
_cell_angle_beta                       90.00
_cell_angle_gamma                      120.00
_symmetry_space_group_name_H-M_alt     'P 1'
_symmetry_space_group_IT_number        1

loop_
_space_group_symop_operation_xyz
   'x, y, z'

loop_
   _atom_site_label
   _atom_site_type_symbol
   _atom_site_fract_x
   _atom_site_fract_y
   _atom_site_fract_z
   _atom_site_charge
opls_142-0    C    0.46389989    0.25997035    0.24127000    0.07150000
opls_142-1    C    0.74003003    0.20393026    0.24127000    0.07150000
opls_142-2    C    0.79606982    0.53610009    0.24127000    0.07150000
opls_142-3    C    0.13167007    0.59867017    0.79813000    0.07160000
opls_142-4    C    0.40133002    0.53299996    0.79813000    0.07160000
opls_142-5    C    0.46699992    0.86832987    0.79813000    0.07160000
opls_145-6    C    0.24412026    0.04317995    0.32804000    -0.15880000
opls_145-7    C    0.95681983    0.20094003    0.32804000    -0.15880000
opls_145-8    C    0.79905991    0.75588002    0.32804000    -0.15880000
opls_145-9    C    0.91736983    0.38547018    0.66379000    -0.16540000
opls_145-10    C    0.61452983    0.53190021    0.66379000    -0.16540000
opls_145-11    C    0.46810008    0.08263032    0.66379000    -0.15920000
opls_145-12    C    0.14504981    0.00150011    0.32197000    -0.16330000
opls_145-13    C    0.99849982    0.14354970    0.32197000    -0.16330000
opls_145-14    C    0.85645037    0.85495019    0.32197000    -0.16360000
opls_145-15    C    0.81830968    0.34202975    0.65418000    -0.16520000
opls_145-16    C    0.65796991    0.47627975    0.65418000    -0.16520000
opls_145-17    C    0.52372000    0.18167980    0.65418000    -0.16520000
opls_145-18    C    0.90674995    0.73971992    0.13834000    -0.16570000
opls_145-19    C    0.26028004    0.16702980    0.13834000    -0.16570000
opls_145-20    C    0.83297001    0.09325028    0.13834000    -0.16390000
opls_145-21    C    0.58569988    0.07827985    0.84480000    -0.16670000
opls_145-22    C    0.92172002    0.50742027    0.84480000    -0.16530000
opls_145-23    C    0.49258010    0.41429988    0.84480000    -0.16530000
opls_145-24    C    0.96318970    0.83888001    0.12950000    -0.16390000
opls_145-25    C    0.16111985    0.12431016    0.12950000    -0.16390000
opls_145-26    C    0.87568983    0.03680983    0.12950000    -0.16390000
opls_145-27    C    0.64102993    0.17738000    0.83595000    -0.16520000
opls_145-28    C    0.82261987    0.46365012    0.83595000    -0.16520000
opls_145-29    C    0.53635020    0.35896988    0.83595000    -0.16770000
opls_700-30    C    0.72921993    0.43251032    0.24686000    0.05400000
opls_700-31    C    0.56748986    0.29671025    0.24686000    0.05400000
opls_700-32    C    0.70328995    0.27078015    0.24686000    0.05400000
opls_700-33    C    0.39808985    0.76535027    0.80209000    0.05410000
opls_700-34    C    0.23465010    0.63274026    0.80209000    0.05410000
opls_700-35    C    0.36725979    0.60191018    0.80209000    0.05410000
opls_145-36    C    0.76535012    0.36992026    0.24685000    -0.16260000
opls_145-37    C    0.63008027    0.39543001    0.24685000    -0.16260000
opls_145-38    C    0.60456961    0.23464973    0.24685000    -0.16260000
opls_145-39    C    0.43158001    0.70060996    0.80269000    -0.16260000
opls_145-40    C    0.29938969    0.73096974    0.80269000    -0.16260000
opls_145-41    C    0.26903030    0.56842029    0.80269000    -0.16250000
opls_145-42    C    0.82490994    0.69760974    0.24004000    0.20270000
opls_145-43    C    0.30238964    0.12729968    0.24004000    0.20270000
opls_145-44    C    0.87270006    0.17508987    0.24004000    0.20280000
opls_145-45    C    0.49887973    0.03015995    0.75733000    0.19290000
opls_145-46    C    0.96984025    0.46872995    0.75733000    0.19280000
opls_145-47    C    0.53127013    0.50111010    0.75733000    0.19280000
opls_916-48    C    0.93935011    0.89749998    0.22305000    0.17120000
opls_916-49    C    0.10249963    0.04184969    0.22305000    0.17120000
opls_916-50    C    0.95815026    0.06065033    0.22305000    0.17120000
opls_916-51    C    0.61070999    0.23030996    0.74078000    0.17040000
opls_916-52    C    0.76969029    0.38040035    0.74078000    0.17040000
opls_916-53    C    0.61959973    0.38928969    0.74078000    0.17120000
opls_750-54    N    0.40383019    0.16913010    0.25226000    -0.34430000
opls_750-55    N    0.83086962    0.23469968    0.25226000    -0.34450000
opls_750-56    N    0.76530019    0.59617022    0.25226000    -0.34440000
opls_750-57    N    0.07131003    0.50994020    0.76509000    -0.34430000
opls_750-58    N    0.49006018    0.56137005    0.76509000    -0.34420000
opls_750-59    N    0.43862979    0.92868974    0.76509000    -0.34430000
opls_239-60    N    0.00000000    0.00000000    0.21950000    -0.14570000
opls_239-61    N    0.66667006    0.33333024    0.73634000    -0.14700000
opls_146-62    H    0.27557012    0.01084976    0.40416000    0.12400000
opls_146-63    H    0.98914974    0.26471976    0.40416000    0.12410000
opls_146-64    H    0.73527978    0.72442977    0.40416000    0.12400000
opls_146-65    H    0.95361981    0.35452021    0.59763000    0.12380000
opls_146-66    H    0.64548006    0.59909979    0.59763000    0.12380000
opls_146-67    H    0.40090014    0.04638000    0.59763000    0.12380000
opls_146-68    H    0.10155002    0.93821995    0.39582000    0.12060000
opls_146-69    H    0.06178005    0.16333019    0.39582000    0.12060000
opls_146-70    H    0.83666987    0.89843987    0.39582000    0.12030000
opls_146-71    H    0.77938986    0.27777972    0.58069000    0.12350000
opls_146-72    H    0.72221990    0.50161037    0.58069000    0.12360000
opls_146-73    H    0.49839024    0.22060991    0.58069000    0.12380000
opls_146-74    H    0.92630032    0.69631017    0.06389000    0.11970000
opls_146-75    H    0.30369042    0.22999024    0.06389000    0.11970000
opls_146-76    H    0.77001017    0.07369031    0.06389000    0.11970000
opls_146-77    H    0.61004964    0.04016974    0.92289000    0.12380000
opls_146-78    H    0.95982985    0.56987973    0.92289000    0.12380000
opls_146-79    H    0.43012015    0.38994982    0.92289000    0.12380000
opls_146-80    H    0.02568013    0.87006977    0.04988000    0.11830000
opls_146-81    H    0.12992976    0.15560983    0.04988000    0.11830000
opls_146-82    H    0.84438976    0.97431969    0.04988000    0.11830000
opls_146-83    H    0.70722010    0.21300016    0.90501000    0.11950000
opls_146-84    H    0.78699990    0.49422971    0.90501000    0.12090000
opls_146-85    H    0.50577016    0.29278012    0.90501000    0.11950000
opls_146-86    H    0.60134012    0.44324018    0.24501000    0.12150000
opls_146-87    H    0.55676003    0.15809978    0.24501000    0.12150000
opls_146-88    H    0.84189986    0.39866003    0.24501000    0.12150000
opls_144-89    H    0.87175028    0.56143999    0.22916000    0.11050000
opls_144-90    H    0.43854975    0.31029974    0.22916000    0.11050000
opls_144-91    H    0.68969992    0.12825027    0.22916000    0.11050000
opls_146-92    H    0.27268003    0.78048984    0.80215000    0.11810000
opls_146-93    H    0.21950974    0.49219007    0.80215000    0.11820000
opls_146-94    H    0.50781023    0.72732009    0.80215000    0.11810000
opls_144-95    H    0.54207030    0.89228028    0.81487000    0.11390000
opls_144-96    H    0.10772029    0.64980028    0.81487000    0.10870000
opls_144-97    H    0.35019993    0.45793015    0.81487000    0.10870000
