#======================================================================
# Crystal Data Generated By AuToFF
#----------------------------------------------------------------------

data_AuToFF_phase_1

_cell_length_a                         41.9700
_cell_length_b                         41.9700
_cell_length_c                         5.0000
_cell_angle_alpha                      90.00
_cell_angle_beta                       90.00
_cell_angle_gamma                      90.00
_symmetry_space_group_name_H-M_alt     'P 1'
_symmetry_space_group_IT_number        1

loop_
_space_group_symop_operation_xyz
   'x, y, z'

loop_
   _atom_site_label
   _atom_site_type_symbol
   _atom_site_fract_x
   _atom_site_fract_y
   _atom_site_fract_z
   _atom_site_charge
opls_700-0    C    0.31466000    0.69591994    0.49205000    0.00600000
opls_700-1    C    0.68534000    0.30408006    0.49205000    0.00600000
opls_700-2    C    0.30408006    0.31466000    0.49205000    0.00600000
opls_700-3    C    0.69591994    0.68534000    0.49205000    0.00600000
opls_543-4    C    0.06611008    0.02462997    0.09059000    0.18840000
opls_543-5    C    0.06739004    0.97333000    0.09091000    0.18480000
opls_543-6    C    0.43386991    0.47542006    0.83284000    0.18810000
opls_543-7    C    0.93388992    0.97537003    0.09059000    0.18850000
opls_543-8    C    0.93260996    0.02667000    0.09091000    0.18480000
opls_543-9    C    0.56613009    0.52457994    0.83284000    0.18810000
opls_543-10    C    0.97537003    0.06611008    0.09059000    0.18840000
opls_543-11    C    0.02667000    0.06739004    0.09091000    0.18480000
opls_543-12    C    0.52457994    0.43386991    0.83284000    0.18810000
opls_543-13    C    0.02462997    0.93388992    0.09059000    0.18840000
opls_543-14    C    0.97333000    0.93260996    0.09091000    0.18480000
opls_543-15    C    0.47542006    0.56613009    0.83284000    0.18810000
opls_716-16    C    0.09948010    0.01474005    0.10510000    -0.19320000
opls_716-17    C    0.10025995    0.98383012    0.11328000    -0.19390000
opls_716-18    C    0.40050989    0.48533000    0.81832000    -0.19320000
opls_716-19    C    0.90051990    0.98525995    0.10510000    -0.19320000
opls_716-20    C    0.89974005    0.01616988    0.11328000    -0.19400000
opls_716-21    C    0.59949011    0.51467000    0.81832000    -0.19310000
opls_716-22    C    0.98525995    0.09948010    0.10510000    -0.19320000
opls_716-23    C    0.01616988    0.10025995    0.11328000    -0.19400000
opls_716-24    C    0.51467000    0.40050989    0.81832000    -0.19320000
opls_716-25    C    0.01474005    0.90051990    0.10510000    -0.19320000
opls_716-26    C    0.98383012    0.89974005    0.11328000    -0.19400000
opls_716-27    C    0.48533000    0.59949011    0.81832000    -0.19310000
opls_543-28    C    0.52672004    0.56737003    0.83260000    0.18480000
opls_543-29    C    0.47327996    0.43262997    0.83260000    0.18460000
opls_543-30    C    0.43262997    0.52672004    0.83260000    0.18480000
opls_543-31    C    0.56737003    0.47327996    0.83260000    0.18460000
opls_716-32    C    0.51624994    0.60024994    0.81018000    -0.19390000
opls_716-33    C    0.48375006    0.39975006    0.81018000    -0.19400000
opls_716-34    C    0.39975006    0.51624994    0.81018000    -0.19400000
opls_716-35    C    0.60024994    0.48375006    0.81018000    -0.19400000
opls_141-36    C    0.05708006    0.05840005    0.09370000    -0.07000000
opls_141-37    C    0.44286991    0.44164999    0.82965000    -0.07000000
opls_141-38    C    0.94291994    0.94159995    0.09370000    -0.07000000
opls_141-39    C    0.55713009    0.55835001    0.82965000    -0.07000000
opls_141-40    C    0.94159995    0.05708006    0.09370000    -0.07000000
opls_141-41    C    0.55835001    0.44286991    0.82965000    -0.07000000
opls_141-42    C    0.05840005    0.94291994    0.09370000    -0.07000000
opls_141-43    C    0.44164999    0.55713009    0.82965000    -0.07000000
opls_700-44    C    0.08268001    0.08287991    0.12700000    0.07030000
opls_700-45    C    0.41725995    0.41718990    0.79599000    0.07030000
opls_700-46    C    0.91731999    0.91712009    0.12700000    0.07020000
opls_700-47    C    0.58274005    0.58281010    0.79599000    0.07030000
opls_700-48    C    0.91712009    0.08268001    0.12700000    0.07030000
opls_700-49    C    0.58281010    0.41725995    0.79599000    0.07030000
opls_700-50    C    0.08287991    0.91731999    0.12700000    0.07020000
opls_700-51    C    0.41718990    0.58274005    0.79599000    0.07030000
opls_145-52    C    0.10333000    0.08151990    0.34752000    -0.12390000
opls_145-53    C    0.10784989    0.91376007    0.94252000    -0.12740000
opls_145-54    C    0.39663998    0.41858995    0.57533000    -0.12470000
opls_145-55    C    0.39219990    0.58634000    0.98024000    -0.12750000
opls_145-56    C    0.89668001    0.91848010    0.34752000    -0.12390000
opls_145-57    C    0.89215011    0.08623993    0.94252000    -0.12740000
opls_145-58    C    0.60336002    0.58141005    0.57533000    -0.12470000
opls_145-59    C    0.60780010    0.41366000    0.98024000    -0.12750000
opls_145-60    C    0.91848010    0.10333000    0.34752000    -0.12390000
opls_145-61    C    0.08623993    0.10784989    0.94252000    -0.12740000
opls_145-62    C    0.58141005    0.39663998    0.57533000    -0.12470000
opls_145-63    C    0.41366000    0.39219990    0.98024000    -0.12750000
opls_145-64    C    0.08151990    0.89668001    0.34752000    -0.12390000
opls_145-65    C    0.91376007    0.89215011    0.94252000    -0.12740000
opls_145-66    C    0.41858995    0.60336002    0.57533000    -0.12470000
opls_145-67    C    0.58634000    0.60780010    0.98024000    -0.12750000
opls_145-68    C    0.12751990    0.10410007    0.37949000    -0.16230000
opls_145-69    C    0.13118990    0.89037003    0.98079000    -0.16630000
opls_145-70    C    0.37243007    0.39603002    0.54299000    -0.16310000
opls_145-71    C    0.36887991    0.60974005    0.94158000    -0.16620000
opls_145-72    C    0.87248010    0.89589993    0.37949000    -0.16310000
opls_145-73    C    0.86881010    0.10962997    0.98079000    -0.16630000
opls_145-74    C    0.62756993    0.60396998    0.54299000    -0.16310000
opls_145-75    C    0.63112009    0.39025995    0.94158000    -0.16630000
opls_145-76    C    0.89589993    0.12751990    0.37949000    -0.16230000
opls_145-77    C    0.10962997    0.13118990    0.98079000    -0.16630000
opls_145-78    C    0.60396998    0.37243007    0.54299000    -0.16310000
opls_145-79    C    0.39025995    0.36887991    0.94158000    -0.16630000
opls_145-80    C    0.10410007    0.87248010    0.37949000    -0.16310000
opls_145-81    C    0.89037003    0.86881010    0.98079000    -0.16630000
opls_145-82    C    0.39603002    0.62756993    0.54299000    -0.16310000
opls_145-83    C    0.60974005    0.63112009    0.94158000    -0.16630000
opls_145-84    C    0.13045008    0.12959995    0.19854000    0.19580000
opls_145-85    C    0.36947010    0.37050989    0.72369000    0.19580000
opls_145-86    C    0.86954992    0.87040005    0.19854000    0.19580000
opls_145-87    C    0.63052990    0.62949011    0.72369000    0.19580000
opls_145-88    C    0.87040005    0.13045008    0.19854000    0.19580000
opls_145-89    C    0.62949011    0.36947010    0.72369000    0.19580000
opls_145-90    C    0.12959995    0.86954992    0.19854000    0.19580000
opls_145-91    C    0.37050989    0.63052990    0.72369000    0.19580000
opls_142-92    C    0.67368001    0.65813009    0.49632000    0.07230000
opls_142-93    C    0.82641005    0.84170002    0.42532000    0.07290000
opls_521-94    C    0.71929998    0.68725995    0.29265000    0.07900000
opls_521-95    C    0.73858995    0.73645008    0.46876000    0.17480000
opls_522-96    C    0.71554992    0.73529998    0.67206000    -0.16530000
opls_523-97    C    0.69418990    0.70980010    0.68269000    -0.11960000
opls_700-98    C    0.80416011    0.81449011    0.42907000    0.00600000
opls_521-99    C    0.78076007    0.81253991    0.62828000    0.07900000
opls_521-100    C    0.76149011    0.76337003    0.45154000    0.17480000
opls_522-101    C    0.78454992    0.76454992    0.24840000    -0.16350000
opls_523-102    C    0.80589993    0.79006004    0.23815000    -0.11960000
opls_142-103    C    0.32631999    0.34186991    0.49632000    0.07290000
opls_142-104    C    0.17358995    0.15829998    0.42532000    0.07290000
opls_521-105    C    0.28070002    0.31274005    0.29265000    0.07900000
opls_521-106    C    0.26141005    0.26354992    0.46876000    0.16880000
opls_522-107    C    0.28445008    0.26470002    0.67206000    -0.16530000
opls_523-108    C    0.30581010    0.29019990    0.68269000    -0.11960000
opls_700-109    C    0.19583989    0.18551990    0.42907000    0.00600000
opls_521-110    C    0.21923993    0.18746009    0.62828000    0.07900000
opls_521-111    C    0.23851990    0.23662997    0.45154000    0.17480000
opls_522-112    C    0.21545008    0.23545008    0.24840000    -0.16530000
opls_523-113    C    0.19410007    0.20993996    0.23815000    -0.11650000
opls_142-114    C    0.34186991    0.67368001    0.49632000    0.07230000
opls_142-115    C    0.15829998    0.82641005    0.42532000    0.07290000
opls_521-116    C    0.31274005    0.71929998    0.29265000    0.07900000
opls_521-117    C    0.26354992    0.73858995    0.46876000    0.17480000
opls_522-118    C    0.26470002    0.71554992    0.67206000    -0.16520000
opls_523-119    C    0.29019990    0.69418990    0.68269000    -0.11960000
opls_700-120    C    0.18551990    0.80416011    0.42907000    0.00600000
opls_521-121    C    0.18746009    0.78076007    0.62828000    0.07900000
opls_521-122    C    0.23662997    0.76149011    0.45154000    0.17470000
opls_522-123    C    0.23545008    0.78454992    0.24840000    -0.16350000
opls_523-124    C    0.20993996    0.80589993    0.23815000    -0.11660000
opls_142-125    C    0.65813009    0.32631999    0.49632000    0.07290000
opls_142-126    C    0.84170002    0.17358995    0.42532000    0.07300000
opls_521-127    C    0.68725995    0.28070002    0.29265000    0.07900000
opls_521-128    C    0.73645008    0.26141005    0.46876000    0.16880000
opls_522-129    C    0.73529998    0.28445008    0.67206000    -0.16530000
opls_523-130    C    0.70980010    0.30581010    0.68269000    -0.11960000
opls_700-131    C    0.81449011    0.19583989    0.42907000    0.00600000
opls_521-132    C    0.81253991    0.21923993    0.62828000    0.07900000
opls_521-133    C    0.76337003    0.23851990    0.45154000    0.17470000
opls_522-134    C    0.76454992    0.21545008    0.24840000    -0.16530000
opls_523-135    C    0.79006004    0.19410007    0.23815000    -0.11960000
opls_547-136    H    0.12049011    0.02964999    0.10640000    0.12300000
opls_547-137    H    0.12174005    0.96977007    0.13219000    0.12530000
opls_547-138    H    0.37948010    0.47044008    0.81695000    0.12440000
opls_547-139    H    0.87950989    0.97035001    0.10640000    0.12300000
opls_547-140    H    0.87825995    0.03022993    0.13219000    0.12530000
opls_547-141    H    0.62051990    0.52955992    0.81695000    0.12440000
opls_547-142    H    0.97035001    0.12049011    0.10640000    0.12300000
opls_547-143    H    0.03022993    0.12174005    0.13219000    0.12530000
opls_547-144    H    0.52955992    0.37948010    0.81695000    0.12440000
opls_547-145    H    0.02964999    0.87950989    0.10640000    0.12310000
opls_547-146    H    0.96977007    0.87825995    0.13219000    0.12530000
opls_547-147    H    0.47044008    0.62051990    0.81695000    0.12450000
opls_547-148    H    0.53031999    0.62172004    0.79123000    0.12440000
opls_547-149    H    0.46968001    0.37827996    0.79123000    0.12440000
opls_547-150    H    0.37827996    0.53031999    0.79123000    0.12440000
opls_547-151    H    0.62172004    0.46968001    0.79123000    0.12450000
opls_146-152    H    0.10078008    0.06277007    0.49511000    0.11950000
opls_146-153    H    0.10953991    0.92949011    0.77129000    0.11780000
opls_146-154    H    0.39921992    0.43736002    0.42793000    0.11980000
opls_146-155    H    0.39048010    0.57062997    0.15160000    0.11770000
opls_146-156    H    0.89921992    0.93722993    0.49511000    0.11950000
opls_146-157    H    0.89046009    0.07050989    0.77129000    0.11770000
opls_146-158    H    0.60078008    0.56263998    0.42793000    0.11980000
opls_146-159    H    0.60951990    0.42937003    0.15160000    0.11780000
opls_146-160    H    0.93722993    0.10078008    0.49511000    0.11950000
opls_146-161    H    0.07050989    0.10953991    0.77129000    0.11770000
opls_146-162    H    0.56263998    0.39921992    0.42793000    0.11980000
opls_146-163    H    0.42937003    0.39048010    0.15160000    0.11770000
opls_146-164    H    0.06277007    0.89921992    0.49511000    0.11950000
opls_146-165    H    0.92949011    0.89046009    0.77129000    0.11770000
opls_146-166    H    0.43736002    0.60078008    0.42793000    0.11980000
opls_146-167    H    0.57062997    0.60951990    0.15160000    0.11770000
opls_146-168    H    0.14331999    0.10150989    0.54800000    0.11870000
opls_146-169    H    0.15066000    0.88821992    0.83990000    0.11870000
opls_146-170    H    0.35664999    0.39866000    0.37436000    0.11880000
opls_146-171    H    0.34939004    0.61191994    0.08229000    0.11860000
opls_146-172    H    0.85668001    0.89849011    0.54800000    0.11870000
opls_146-173    H    0.84934000    0.11178008    0.83990000    0.11870000
opls_146-174    H    0.64335001    0.60134000    0.37436000    0.11870000
opls_146-175    H    0.65060996    0.38808006    0.08229000    0.11860000
opls_146-176    H    0.89849011    0.14331999    0.54800000    0.11870000
opls_146-177    H    0.11178008    0.15066000    0.83990000    0.11870000
opls_146-178    H    0.60134000    0.35664999    0.37436000    0.11870000
opls_146-179    H    0.38808006    0.34939004    0.08229000    0.11860000
opls_146-180    H    0.10150989    0.85668001    0.54800000    0.11870000
opls_146-181    H    0.88821992    0.84934000    0.83990000    0.11880000
opls_146-182    H    0.39866000    0.64335001    0.37436000    0.11870000
opls_146-183    H    0.61191994    0.65060996    0.08229000    0.11870000
opls_144-184    H    0.67430998    0.64172004    0.32981000    0.12530000
opls_144-185    H    0.82577007    0.85806004    0.59217000    0.12530000
opls_524-186    H    0.72124994    0.66883989    0.14168000    0.10900000
opls_526-187    H    0.67638003    0.70909006    0.83952000    0.11710000
opls_524-188    H    0.77880010    0.83092995    0.77948000    0.11000000
opls_525-189    H    0.78589993    0.74597999    0.09853000    0.11870000
opls_526-190    H    0.82371003    0.79080010    0.08136000    0.12150000
opls_525-191    H    0.28577007    0.24609006    0.82166000    0.11910000
opls_144-192    H    0.32569002    0.35827996    0.32981000    0.12530000
opls_144-193    H    0.17422993    0.14194996    0.59217000    0.12390000
opls_524-194    H    0.27875006    0.33116011    0.14168000    0.10900000
opls_526-195    H    0.32361997    0.29090994    0.83952000    0.11710000
opls_524-196    H    0.22119990    0.16907005    0.77948000    0.11000000
opls_525-197    H    0.21410007    0.25402001    0.09853000    0.11870000
opls_526-198    H    0.17628997    0.20919990    0.08136000    0.12150000
opls_525-199    H    0.71422993    0.75390994    0.82166000    0.11910000
opls_144-200    H    0.35827996    0.67430998    0.32981000    0.12530000
opls_144-201    H    0.14194996    0.82577007    0.59217000    0.12390000
opls_524-202    H    0.33116011    0.72124994    0.14168000    0.10900000
opls_526-203    H    0.29090994    0.67638003    0.83952000    0.11710000
opls_524-204    H    0.16907005    0.77880010    0.77948000    0.11000000
opls_525-205    H    0.25402001    0.78589993    0.09853000    0.11880000
opls_526-206    H    0.20919990    0.82371003    0.08136000    0.12150000
opls_525-207    H    0.75390994    0.28577007    0.82166000    0.11910000
opls_144-208    H    0.64172004    0.32569002    0.32981000    0.12530000
opls_144-209    H    0.85806004    0.17422993    0.59217000    0.12530000
opls_524-210    H    0.66883989    0.27875006    0.14168000    0.10900000
opls_526-211    H    0.70909006    0.32361997    0.83952000    0.11710000
opls_524-212    H    0.83092995    0.22119990    0.77948000    0.11000000
opls_525-213    H    0.74597999    0.21410007    0.09853000    0.11870000
opls_526-214    H    0.79080010    0.17628997    0.08136000    0.12150000
opls_525-215    H    0.24609006    0.71422993    0.82166000    0.11910000
opls_542-216    N    0.49963998    0.54671003    0.84513000    -0.38530000
opls_542-217    N    0.50037003    0.45328997    0.84513000    -0.38530000
opls_542-218    N    0.45328997    0.49963998    0.84513000    -0.38510000
opls_542-219    N    0.54671003    0.50037003    0.84513000    -0.38520000
opls_542-220    N    0.04671003    0.00040005    0.07840000    -0.38510000
opls_542-221    N    0.95328997    0.99959995    0.07840000    -0.38530000
opls_542-222    N    0.99959995    0.04671003    0.07840000    -0.38530000
opls_542-223    N    0.00040005    0.95328997    0.07840000    -0.38530000
opls_750-224    N    0.65380010    0.65439004    0.69354000    -0.33160000
opls_750-225    N    0.84629998    0.84549011    0.22821000    -0.33170000
opls_520-226    N    0.73973005    0.71239004    0.28561000    -0.29220000
opls_520-227    N    0.76033000    0.78741005    0.63488000    -0.29220000
opls_750-228    N    0.34620991    0.34560996    0.69354000    -0.33160000
opls_750-229    N    0.15370002    0.15450989    0.22821000    -0.33170000
opls_520-230    N    0.26026995    0.28760996    0.28561000    -0.29220000
opls_520-231    N    0.23967000    0.21258995    0.63488000    -0.29210000
opls_750-232    N    0.34560996    0.65380010    0.69354000    -0.33170000
opls_750-233    N    0.15450989    0.84629998    0.22821000    -0.33170000
opls_520-234    N    0.28760996    0.73973005    0.28561000    -0.29220000
opls_520-235    N    0.21258995    0.76033000    0.63488000    -0.29210000
opls_750-236    N    0.65439004    0.34620991    0.69354000    -0.33170000
opls_750-237    N    0.84549011    0.15370002    0.22821000    -0.33160000
opls_520-238    N    0.71239004    0.26026995    0.28561000    -0.29220000
opls_520-239    N    0.78741005    0.23967000    0.63488000    -0.29210000
Cu2+-240    Cu    0.00000000    0.00000000    0.98731000    0.65880000
Cu2+-241    Cu    0.50000000    0.50000000    0.93621000    0.65870000
