#======================================================================
# Crystal Data Generated By AuToFF
#----------------------------------------------------------------------

data_AuToFF_phase_1

_cell_length_a                         24.4600
_cell_length_b                         28.6100
_cell_length_c                         7.4400
_cell_angle_alpha                      90.00
_cell_angle_beta                       90.00
_cell_angle_gamma                      90.00
_symmetry_space_group_name_H-M_alt     'P 1'
_symmetry_space_group_IT_number        1

loop_
_space_group_symop_operation_xyz
   'x, y, z'

loop_
   _atom_site_label
   _atom_site_type_symbol
   _atom_site_fract_x
   _atom_site_fract_y
   _atom_site_fract_z
   _atom_site_charge
opls_145-0    C    0.21989984    0.69929990    0.05808065    -0.18260000
opls_145-1    C    0.26047016    0.68698986    0.05427957    0.00430000
opls_147-2    C    0.29106991    0.71742992    0.04388978    0.01370000
opls_145-3    C    0.28017989    0.75937994    0.04838038    0.00550000
opls_147-4    C    0.23834996    0.77060014    0.06025941    0.01090000
opls_145-5    C    0.20776002    0.73996015    0.06031048    0.00580000
opls_145-6    C    0.33304988    0.70724991    0.03102016    -0.18100000
opls_145-7    C    0.31121995    0.79011989    0.04088038    0.00550000
opls_147-8    C    0.35293990    0.77837994    0.03175000    0.01120000
opls_145-9    C    0.36254988    0.73621007    0.03409946    -0.19450000
opls_145-10    C    0.38371995    0.80852010    0.01963038    0.01120000
opls_145-11    C    0.37206010    0.84916987    0.02336962    -0.13120000
opls_145-12    C    0.33171014    0.86232017    0.03286022    0.01020000
opls_147-13    C    0.30052984    0.83222999    0.04163038    0.01120000
opls_145-14    C    0.25836018    0.84198986    0.05450941    -0.19430000
opls_145-15    C    0.22912020    0.81283992    0.07054973    -0.19450000
opls_145-16    C    0.42756991    0.79963999    0.00425941    0.02800000
opls_145-17    C    0.45600981    0.82501014    0.08600941    -0.19430000
opls_145-18    C    0.44286018    0.76742013    0.90583065    -0.21480000
opls_145-19    C    0.49741987    0.81775987    0.07702016    -0.20500000
opls_145-20    C    0.48413001    0.75903985    0.90156989    -0.20410000
opls_145-21    C    0.51221014    0.78355016    0.98950000    0.10200000
opls_145-22    C    0.32654007    0.90701014    0.02911962    0.02710000
opls_145-23    C    0.29732011    0.92880007    0.12225941    -0.21900000
opls_145-24    C    0.35456991    0.93001992    0.93252016    -0.21270000
opls_145-25    C    0.29630989    0.97095002    0.11841935    -0.23120000
opls_145-26    C    0.35478986    0.97201014    0.93336962    -0.22910000
opls_145-27    C    0.32565004    0.99355016    0.02852016    0.11830000
opls_145-28    C    0.16339002    0.74736001    0.06193011    0.02740000
opls_145-29    C    0.14445012    0.77903006    0.97091935    -0.21240000
opls_145-30    C    0.13806991    0.71991996    0.15008065    -0.19530000
opls_145-31    C    0.10249019    0.78365991    0.97147984    -0.20410000
opls_145-32    C    0.09606991    0.72291017    0.14345968    -0.20490000
opls_145-33    C    0.07769011    0.75488990    0.05311962    0.10080000
opls_145-34    C    0.26928005    0.64296015    0.06070968    0.02640000
opls_145-35    C    0.30217007    0.62701014    0.15450941    -0.21690000
opls_145-36    C    0.24387980    0.61514016    0.97579973    -0.21530000
opls_145-37    C    0.31139002    0.58596994    0.15138038    -0.23040000
opls_145-38    C    0.25130008    0.57365012    0.98106989    -0.22910000
opls_145-39    C    0.28584015    0.55860993    0.06558065    0.11740000
opls_142-40    C    0.58091006    0.78985984    0.06927957    0.02890000
opls_142-41    C    0.27467007    0.48875987    0.11208065    0.08020000
opls_145-42    C    0.62371014    0.77924013    0.04993952    0.02160000
opls_145-43    C    0.63636999    0.74534009    0.95540995    -0.19440000
opls_145-44    C    0.65352003    0.80377001    0.12643011    -0.19450000
opls_145-45    C    0.67726002    0.73539007    0.94397043    -0.19420000
opls_145-46    C    0.69430989    0.79377001    0.11438978    -0.19430000
opls_145-47    C    0.70682993    0.75870989    0.02852957    0.02840000
opls_145-48    C    0.75076983    0.74913002    0.02570027    0.00160000
opls_145-49    C    0.76878005    0.71244006    0.08288038    0.04760000
opls_145-50    C    0.77791987    0.77885984    0.96984946    -0.19440000
opls_145-51    C    0.81119992    0.70486998    0.07579032    0.10290000
opls_145-52    C    0.81982993    0.77218001    0.96388978    -0.19450000
opls_145-53    C    0.83782993    0.73565012    0.01295968    -0.01660000
opls_712-54    C    0.78191987    0.65316987    0.22454032    0.08550000
opls_135-55    C    0.71067007    0.67044984    0.20049059    -0.31080000
opls_145-56    C    0.88278005    0.73357008    0.00215054    0.02840000
MOF2_C_3-57    C    0.85252984    0.64106012    0.13949059    -0.26450000
opls_145-58    C    0.90337980    0.70391996    0.90797043    -0.19430000
opls_145-59    C    0.90576983    0.76413002    0.08163038    -0.19450000
opls_145-60    C    0.94554007    0.70270989    0.90797984    -0.19430000
opls_145-61    C    0.94789984    0.76378015    0.07709005    -0.19450000
opls_145-62    C    0.96850981    0.73227997    0.99391935    0.02160000
opls_145-63    C    0.28686999    0.44619014    0.09575941    0.01320000
opls_145-64    C    0.26347997    0.41555016    0.17274059    -0.21440000
opls_145-65    C    0.32123998    0.43459000    0.00140054    -0.21580000
opls_145-66    C    0.27508994    0.37519993    0.16234946    -0.21900000
opls_145-67    C    0.33215985    0.39406012    0.98754973    -0.21120000
opls_145-68    C    0.31013982    0.36360014    0.07304973    0.02630000
opls_141-69    C    0.32091006    0.32001014    0.06729032    0.00090000
opls_713-70    C    0.35958013    0.30288011    0.10409946    0.06350000
opls_142-71    C    0.29052984    0.29188990    0.02734946    -0.22410000
opls_141-72    C    0.36745993    0.26060014    0.09622043    0.05140000
opls_142-73    C    0.29800981    0.25024991    0.01615054    -0.18100000
opls_141-74    C    0.33623998    0.23318001    0.04488038    0.00030000
MOF2_C_3-75    C    0.42628005    0.29175009    0.17318011    0.07670000
opls_905-76    C    0.40402984    0.36127997    0.20140995    -0.29830000
opls_145-77    C    0.34080008    0.18875987    0.02416935    0.02630000
MOF2_C_3-78    C    0.42562020    0.21704998    0.20415054    -0.32050000
opls_145-79    C    0.31180008    0.16278993    0.09802016    -0.21820000
opls_145-80    C    0.37236999    0.17134988    0.92879973    -0.21670000
opls_145-81    C    0.31515004    0.12103006    0.08465995    -0.21910000
opls_145-82    C    0.37615004    0.12949983    0.91761022    -0.21560000
opls_145-83    C    0.34782011    0.10352988    0.99656989    0.01310000
opls_142-84    C    0.01286018    0.72990003    0.99431048    0.01690000
opls_142-85    C    0.35206991    0.05949004    0.98681989    0.06330000
opls_145-86    C    0.22065985    0.69590003    0.56572984    -0.13120000
opls_145-87    C    0.26163982    0.68506991    0.55768011    0.01040000
opls_147-88    C    0.29130989    0.71627997    0.54447984    0.01090000
opls_145-89    C    0.27897016    0.75775987    0.54890054    0.00590000
opls_147-90    C    0.23680008    0.76755994    0.56245968    0.01120000
opls_145-91    C    0.20715985    0.73606991    0.56590995    0.01120000
opls_145-92    C    0.33360998    0.70767005    0.52788978    -0.19450000
opls_145-93    C    0.30895012    0.78942992    0.54011022    0.00590000
opls_147-94    C    0.35119011    0.77950996    0.53024059    0.01090000
opls_145-95    C    0.36213982    0.73765012    0.52854032    -0.19440000
opls_145-96    C    0.38065004    0.81111989    0.52170027    0.01120000
opls_145-97    C    0.36706991    0.85122999    0.52722984    -0.13120000
opls_145-98    C    0.32619992    0.86224991    0.53913978    0.01020000
opls_147-99    C    0.29645993    0.83091017    0.54220027    0.01090000
opls_145-100    C    0.25399019    0.83941000    0.55045027    -0.19450000
opls_145-101    C    0.22584996    0.80939007    0.56904032    -0.19450000
opls_145-102    C    0.42519992    0.80521985    0.51518011    0.02770000
opls_145-103    C    0.45028005    0.83270010    0.60427957    -0.19430000
opls_145-104    C    0.44458994    0.77447990    0.42141935    -0.21240000
opls_145-105    C    0.49223017    0.82949004    0.60361962    -0.20410000
opls_145-106    C    0.48654007    0.77006991    0.42563038    -0.20410000
opls_145-107    C    0.51124980    0.79719014    0.51774059    0.10160000
opls_145-108    C    0.31739984    0.90611010    0.54977957    0.02630000
opls_145-109    C    0.28650000    0.92257008    0.65250941    -0.21930000
opls_145-110    C    0.34254007    0.93347990    0.46050000    -0.21990000
opls_145-111    C    0.27999019    0.96409997    0.65949059    -0.22900000
opls_145-112    C    0.33734015    0.97504998    0.47234946    -0.22950000
opls_145-113    C    0.30575020    0.99114995    0.57227957    0.11820000
opls_145-114    C    0.16269992    0.74273995    0.56741935    0.02740000
opls_145-115    C    0.14382011    0.77411989    0.47438978    -0.19430000
opls_145-116    C    0.13732011    0.71557008    0.65656048    -0.19440000
opls_145-117    C    0.10204007    0.77962006    0.47872043    -0.20410000
opls_145-118    C    0.09530008    0.71921985    0.65259005    -0.20500000
opls_145-119    C    0.07713001    0.75173995    0.56513978    0.10080000
opls_145-120    C    0.27123017    0.64129990    0.56161022    0.02630000
opls_145-121    C    0.30434015    0.62526984    0.65338038    -0.21590000
opls_145-122    C    0.24549019    0.61396015    0.47584005    -0.21530000
opls_145-123    C    0.31249019    0.58398008    0.65331048    -0.23100000
opls_145-124    C    0.25193990    0.57242992    0.48350941    -0.23100000
opls_145-125    C    0.28571995    0.55706012    0.57215995    0.11740000
opls_142-126    C    0.57823017    0.81013002    0.61006989    0.02920000
opls_142-127    C    0.26660016    0.49062985    0.63363978    0.08550000
opls_145-128    C    0.62184996    0.80242013    0.60108065    0.02160000
opls_145-129    C    0.63721995    0.76916008    0.51020027    -0.19430000
opls_145-130    C    0.64952984    0.82806012    0.68534005    -0.19430000
opls_145-131    C    0.67878986    0.76316987    0.49672043    -0.19440000
opls_145-132    C    0.69112020    0.82204998    0.67106989    -0.21510000
opls_145-133    C    0.70652003    0.79037015    0.57063038    0.02730000
opls_145-134    C    0.75074980    0.78481999    0.54572043    0.00160000
opls_716-135    C    0.77773017    0.81514995    0.48350000    0.06690000
opls_145-136    C    0.76865985    0.74762006    0.58491935    -0.19450000
opls_716-137    C    0.82041006    0.80962006    0.47263038    0.05630000
opls_145-138    C    0.81071014    0.74162985    0.57508065    -0.19450000
opls_145-139    C    0.83784996    0.77196994    0.52484946    0.00150000
opls_137-140    C    0.80506991    0.86881999    0.33795027    0.11660000
opls_905-141    C    0.73323017    0.87465991    0.39700941    -0.30850000
opls_145-142    C    0.88184996    0.76226984    0.52845027    0.02790000
MOF2_C_3-143    C    0.87771014    0.85826005    0.38877957    -0.26680000
opls_145-144    C    0.89578986    0.72780007    0.44209005    -0.19520000
opls_145-145    C    0.91004988    0.78508004    0.62300000    -0.19530000
opls_145-146    C    0.93678986    0.71793009    0.43988038    -0.19430000
opls_145-147    C    0.95117989    0.77608004    0.61654032    -0.19420000
opls_145-148    C    0.96534996    0.74275987    0.52241935    0.02160000
opls_145-149    C    0.27312020    0.44683013    0.63247984    0.01320000
opls_145-150    C    0.24589984    0.42086998    0.71734946    -0.21530000
opls_145-151    C    0.30639984    0.42985984    0.54666935    -0.21870000
opls_145-152    C    0.25091987    0.37914995    0.71115995    -0.21800000
opls_145-153    C    0.31069011    0.38811989    0.53679973    -0.21750000
opls_145-154    C    0.28219992    0.36203985    0.61327957    0.02630000
opls_141-155    C    0.28576983    0.31775009    0.59090995    0.00070000
opls_141-156    C    0.25349019    0.29162006    0.54090054    0.07250000
opls_142-157    C    0.32328986    0.29901992    0.61743011    -0.22420000
opls_713-158    C    0.25836999    0.24911010    0.52597984    0.04780000
opls_142-159    C    0.32817989    0.25700000    0.60743952    -0.18080000
opls_141-160    C    0.29613982    0.23073995    0.56859946    0.00040000
MOF2_C_3-161    C    0.19313001    0.26352010    0.45431989    0.06920000
opls_905-162    C    0.19304988    0.33663999    0.47006989    -0.31200000
opls_145-163    C    0.30356010    0.18657008    0.57295968    0.02610000
MOF2_C_3-164    C    0.21645993    0.19427997    0.38479973    -0.29830000
opls_145-165    C    0.27769992    0.15972003    0.66050000    -0.21670000
opls_145-166    C    0.33819992    0.17098008    0.49249059    -0.21770000
opls_145-167    C    0.28456010    0.11822999    0.65616935    -0.21910000
opls_145-168    C    0.34571995    0.12963999    0.49202957    -0.21870000
opls_145-169    C    0.31839002    0.10252988    0.56945968    0.01390000
opls_142-170    C    0.00886999    0.73404998    0.51047984    0.02030000
opls_142-171    C    0.32626983    0.05904998    0.56043952    0.08620000
opls_146-172    H    0.19776002    0.82260993    0.09138978    0.17320000
opls_146-173    H    0.24863982    0.87367005    0.05404032    0.17580000
opls_146-174    H    0.34236999    0.67555994    0.01956989    0.17580000
opls_146-175    H    0.19632011    0.67577001    0.06002957    0.17590000
opls_146-176    H    0.39424980    0.72636001    0.03709005    0.17330000
opls_146-177    H    0.39608994    0.87216008    0.01754973    0.17580000
opls_146-178    H    0.44560998    0.85067005    0.16309946    0.17560000
opls_146-179    H    0.42254988    0.74936001    0.82513978    0.17580000
opls_146-180    H    0.51804007    0.83870010    0.14258065    0.17590000
opls_146-181    H    0.49519992    0.73345998    0.82600941    0.17590000
opls_146-182    H    0.27573998    0.91308004    0.20577016    0.17580000
opls_146-183    H    0.37650000    0.91472003    0.84954973    0.17580000
opls_146-184    H    0.27330989    0.98696015    0.19327016    0.17580000
opls_146-185    H    0.37713982    0.98788990    0.85395968    0.17580000
opls_146-186    H    0.16241987    0.79975987    0.89159005    0.17600000
opls_146-187    H    0.15132011    0.69570989    0.22850941    0.17590000
opls_146-188    H    0.08854007    0.80826984    0.89800941    0.17580000
opls_146-189    H    0.07730989    0.70100000    0.21352957    0.17580000
opls_146-190    H    0.32065985    0.64675009    0.23588038    0.17580000
opls_146-191    H    0.21804988    0.62596994    0.89977016    0.17580000
opls_146-192    H    0.33745012    0.57455016    0.22393952    0.17580000
opls_146-193    H    0.23110016    0.55288011    0.91218011    0.17580000
opls_144-194    H    0.57428986    0.81342013    0.16768952    0.07650000
opls_144-195    H    0.24513982    0.49444984    0.17886962    0.08250000
opls_146-196    H    0.61360016    0.72675987    0.88963038    0.17590000
opls_146-197    H    0.64454007    0.83088011    0.19788038    0.17560000
opls_146-198    H    0.68650000    0.70921985    0.86715054    0.17590000
opls_146-199    H    0.71717007    0.81288011    0.17627016    0.17590000
opls_146-200    H    0.76626002    0.80814016    0.92502016    0.17590000
opls_146-201    H    0.83904988    0.79680007    0.91515054    0.17580000
opls_140-202    H    0.78158994    0.62485984    0.29777957    0.06490000
opls_140-203    H    0.69556010    0.65832017    0.08559005    0.15980000
opls_140-204    H    0.70828986    0.64737994    0.30102016    0.15970000
opls_140-205    H    0.69393990    0.69741000    0.24211022    0.15980000
MOF2_H_-206    H    0.85676002    0.64627997    0.99922984    0.14410000
MOF2_H_-207    H    0.88049019    0.65285005    0.19518952    0.14110000
MOF2_H_b-208    H    0.84508994    0.61009997    0.16565054    0.06580000
opls_146-209    H    0.88636999    0.68170010    0.83274059    0.17590000
opls_146-210    H    0.89028005    0.78813002    0.15238038    0.17580000
opls_146-211    H    0.96108013    0.67880986    0.83613038    0.17580000
opls_146-212    H    0.96515985    0.78762006    0.14231048    0.17580000
opls_146-213    H    0.23619011    0.42352988    0.24559946    0.17580000
opls_146-214    H    0.33906010    0.45785005    0.93475000    0.17590000
opls_146-215    H    0.25697016    0.35201992    0.22772984    0.17590000
opls_146-216    H    0.35791006    0.38583013    0.90602016    0.17580000
opls_144-217    H    0.25987980    0.30270010    0.99656048    0.17320000
opls_144-218    H    0.27275020    0.23067005    0.97679032    0.17590000
MOF2_H_b-219    H    0.45817007    0.29313002    0.21300941    0.04560000
opls_140-220    H    0.41032993    0.37973016    0.08677957    0.15960000
opls_140-221    H    0.37841006    0.37490003    0.26974059    0.15980000
opls_140-222    H    0.43091006    0.36300000    0.28408065    0.15980000
MOF2_H_-223    H    0.39684996    0.20044984    0.23231048    0.14390000
MOF2_H_b-224    H    0.44450000    0.19998008    0.11909005    0.05620000
MOF2_H_-225    H    0.43734015    0.22365991    0.33097984    0.14400000
opls_146-226    H    0.28676983    0.17545998    0.17254973    0.17580000
opls_146-227    H    0.39447016    0.19083992    0.86318952    0.17580000
opls_146-228    H    0.29258013    0.10139007    0.14627016    0.17590000
opls_146-229    H    0.40132993    0.11662985    0.84383065    0.17580000
opls_144-230    H    0.02615004    0.70119993    0.94250941    0.07660000
opls_144-231    H    0.38162020    0.04813002    0.93459005    0.08250000
opls_146-232    H    0.19415004    0.81814016    0.58831048    0.17320000
opls_146-233    H    0.24323017    0.87072003    0.54320027    0.17580000
opls_146-234    H    0.34395993    0.67629990    0.51541935    0.17580000
opls_146-235    H    0.19797016    0.67155994    0.57204032    0.17580000
opls_146-236    H    0.39413982    0.72878015    0.52611962    0.17320000
opls_146-237    H    0.38984996    0.87549004    0.52288978    0.17580000
opls_146-238    H    0.43667989    0.85690003    0.68095968    0.17580000
opls_146-239    H    0.42708994    0.75434988    0.33790054    0.17580000
opls_146-240    H    0.50993990    0.85196015    0.67488038    0.17580000
opls_146-241    H    0.50078986    0.74550996    0.35347043    0.17580000
opls_146-242    H    0.26810016    0.90298986    0.73515995    0.17580000
opls_146-243    H    0.36641987    0.92216987    0.37570968    0.17580000
opls_146-244    H    0.25593990    0.97609997    0.74141935    0.17590000
opls_146-245    H    0.35734996    0.99488011    0.39775000    0.17590000
opls_146-246    H    0.16167989    0.79408983    0.39129973    0.17590000
opls_146-247    H    0.15052003    0.69119014    0.73431048    0.17580000
opls_146-248    H    0.08819992    0.80437015    0.40574059    0.17590000
opls_146-249    H    0.07645012    0.69749004    0.72311022    0.17580000
opls_146-250    H    0.32352003    0.64501014    0.73197043    0.17590000
opls_146-251    H    0.22004988    0.62524013    0.39872043    0.17580000
opls_146-252    H    0.33826002    0.57208983    0.72640054    0.17580000
opls_146-253    H    0.23149019    0.55180007    0.41506989    0.17580000
opls_144-254    H    0.56858994    0.83390003    0.70300000    0.07660000
opls_144-255    H    0.23697016    0.50127997    0.68711022    0.08250000
opls_146-256    H    0.61608994    0.74818001    0.44754032    0.17580000
opls_146-257    H    0.63824980    0.85321985    0.76329973    0.17560000
opls_146-258    H    0.69013982    0.73747012    0.42258065    0.17580000
opls_146-259    H    0.71208994    0.84224013    0.73918952    0.17580000
opls_146-260    H    0.74963001    0.72267005    0.63213978    0.17590000
opls_146-261    H    0.82260016    0.71201014    0.61458065    0.17580000
opls_140-262    H    0.81180008    0.89624013    0.26413978    0.06020000
opls_140-263    H    0.72845012    0.89301014    0.51288038    0.16030000
opls_140-264    H    0.73423017    0.89552010    0.28779032    0.16070000
opls_140-265    H    0.70684015    0.85470989    0.38140054    0.15790000
MOF2_H_-266    H    0.88365004    0.85162985    0.52670027    0.14390000
MOF2_H_-267    H    0.89906010    0.83862006    0.32277957    0.14420000
MOF2_H_b-268    H    0.87965985    0.89004998    0.36304032    0.08960000
opls_146-269    H    0.87421995    0.70903006    0.37104973    0.17580000
opls_146-270    H    0.89969992    0.81006991    0.70354973    0.17580000
opls_146-271    H    0.94680008    0.69121985    0.36818952    0.17570000
opls_146-272    H    0.97297016    0.79473995    0.68763038    0.17580000
opls_146-273    H    0.22076983    0.43365012    0.79154973    0.17580000
opls_146-274    H    0.32836999    0.44980986    0.48304032    0.17580000
opls_146-275    H    0.23028005    0.35945998    0.78361022    0.17580000
opls_146-276    H    0.33597016    0.37542013    0.46343011    0.17590000
opls_144-277    H    0.34949019    0.31745998    0.65615054    0.17580000
opls_144-278    H    0.35808013    0.24447012    0.63938978    0.17320000
MOF2_H_b-279    H    0.16232011    0.25700000    0.40913978    0.04430000
opls_140-280    H    0.17706010    0.34527997    0.58825000    0.15980000
opls_140-281    H    0.21397016    0.36116987    0.43588978    0.15980000
opls_140-282    H    0.17013982    0.33421007    0.36847043    0.15980000
MOF2_H_-283    H    0.24771014    0.19229011    0.32945968    0.14110000
MOF2_H_b-284    H    0.21415985    0.16801992    0.46820027    0.04640000
MOF2_H_b-285    H    0.19423017    0.19670010    0.28509005    0.05220000
opls_146-286    H    0.25189984    0.17157008    0.73334946    0.17580000
opls_146-287    H    0.35897997    0.19132995    0.42463978    0.17590000
opls_146-288    H    0.26389984    0.09752988    0.72320027    0.17580000
opls_146-289    H    0.37256991    0.11808004    0.42531989    0.17580000
opls_144-290    H    0.01773017    0.70573016    0.44106048    0.07660000
opls_144-291    H    0.35828005    0.05039007    0.52831989    0.07120000
opls_750-292    N    0.55321014    0.77306012    0.97740054    -0.04300000
opls_750-293    N    0.29693990    0.51768997    0.05638978    -0.32260000
opls_288-294    N    0.75269992    0.67924991    0.16752016    -0.20310000
MOF2_N_3-295    N    0.81834996    0.67004998    0.17275000    -0.03920000
opls_901-296    N    0.39582011    0.31968997    0.15893952    -0.05850000
opls_288-297    N    0.40860016    0.25524013    0.12866935    -0.02980000
opls_750-298    N    0.32328986    0.03578993    0.03668952    -0.31480000
opls_750-299    N    0.03537980    0.75891017    0.04831048    -0.01070000
opls_750-300    N    0.55315985    0.79054002    0.51456048    -0.05690000
opls_750-301    N    0.29347997    0.51534009    0.57706989    -0.31470000
opls_901-302    N    0.77073998    0.85249004    0.40800941    -0.20690000
opls_288-303    N    0.83552984    0.84121985    0.37252016    -0.03530000
opls_900-304    N    0.21384996    0.29859000    0.48968011    -0.08170000
opls_288-305    N    0.22069011    0.23280007    0.48366935    -0.01760000
opls_750-306    N    0.29819992    0.03265991    0.58683065    -0.27740000
opls_750-307    N    0.03528986    0.75849004    0.57172043    -0.01090000
MOF2_Br-308    Br    0.82813982    0.63270010    0.36318952    -0.23300000
MOF2_Br-309    Br    0.46836018    0.25118001    0.11241935    0.14370000
MOF2_Br-310    Br    0.85117989    0.87434009    0.17659005    -0.23320000
MOF2_Br-311    Br    0.16469011    0.21095002    0.48300941    0.13920000
