#======================================================================
# Crystal Data Generated By AuToFF
#----------------------------------------------------------------------

data_AuToFF_phase_1

_cell_length_a                         27.9300
_cell_length_b                         31.3100
_cell_length_c                         7.8900
_cell_angle_alpha                      90.00
_cell_angle_beta                       90.00
_cell_angle_gamma                      90.00
_symmetry_space_group_name_H-M_alt     'P 1'
_symmetry_space_group_IT_number        1

loop_
_space_group_symop_operation_xyz
   'x, y, z'

loop_
   _atom_site_label
   _atom_site_type_symbol
   _atom_site_fract_x
   _atom_site_fract_y
   _atom_site_fract_z
   _atom_site_charge
opls_145-0    C    0.04330004    0.30580006    0.89600000    -0.13500000
opls_145-1    C    0.04330004    0.34090003    0.78669962    -0.17460000
opls_145-2    C    0.93749982    0.21139987    0.26889987    -0.13410000
opls_145-3    C    0.90000000    0.21139987    0.38610013    -0.17250000
opls_145-4    C    0.04309989    0.43609997    0.26620025    -0.12280000
opls_145-5    C    0.04330004    0.46709997    0.13849937    -0.13550000
opls_145-6    C    0.80939993    0.21150016    0.94820025    -0.11910000
opls_145-7    C    0.78039993    0.21139987    0.09279975    -0.13470000
opls_145-8    C    0.54330004    0.80580006    0.39600000    -0.13500000
opls_145-9    C    0.54330004    0.84090003    0.28669962    -0.17460000
opls_145-10    C    0.43749982    0.71139987    0.76889987    -0.13410000
opls_145-11    C    0.40000000    0.71139987    0.88610013    -0.17250000
opls_145-12    C    0.54309989    0.93609997    0.76620025    -0.12280000
opls_145-13    C    0.54330004    0.96709997    0.63850063    -0.13550000
opls_145-14    C    0.30939993    0.71150016    0.44820025    -0.11910000
opls_145-15    C    0.28039993    0.71139987    0.59279975    -0.13470000
opls_145-16    C    0.95669996    0.19419994    0.89600000    -0.13500000
opls_145-17    C    0.95669996    0.15909997    0.78669962    -0.17460000
opls_145-18    C    0.06249982    0.28860013    0.26889987    -0.13410000
opls_145-19    C    0.10000000    0.28860013    0.38610013    -0.17250000
opls_145-20    C    0.95690011    0.06390003    0.26620025    -0.12280000
opls_145-21    C    0.95669996    0.03290003    0.13849937    -0.13550000
opls_145-22    C    0.19060007    0.28850016    0.94820025    -0.11900000
opls_145-23    C    0.21960007    0.28860013    0.09279975    -0.13470000
opls_145-24    C    0.45669996    0.69419994    0.39600000    -0.13500000
opls_145-25    C    0.45669996    0.65909997    0.28669962    -0.17460000
opls_145-26    C    0.56250018    0.78860013    0.76889987    -0.13410000
opls_145-27    C    0.60000000    0.78860013    0.88610013    -0.17240000
opls_145-28    C    0.45690011    0.56390003    0.76620025    -0.12280000
opls_145-29    C    0.45669996    0.53290003    0.63850063    -0.13550000
opls_145-30    C    0.69060007    0.78849984    0.44820025    -0.11910000
opls_145-31    C    0.71960007    0.78860013    0.59279975    -0.13470000
opls_145-32    C    0.95669996    0.80580006    0.10400000    -0.13500000
opls_145-33    C    0.95669996    0.84090003    0.21330038    -0.17460000
opls_145-34    C    0.06249982    0.71139987    0.73110013    -0.13410000
opls_145-35    C    0.10000000    0.71139987    0.61389987    -0.17250000
opls_145-36    C    0.95690011    0.93609997    0.73379975    -0.12280000
opls_145-37    C    0.95669996    0.96709997    0.86149937    -0.13550000
opls_145-38    C    0.19060007    0.71150016    0.05179975    -0.11910000
opls_145-39    C    0.21960007    0.71139987    0.90720025    -0.13470000
opls_145-40    C    0.45669996    0.30580006    0.60400000    -0.13500000
opls_145-41    C    0.45669996    0.34090003    0.71330038    -0.17460000
opls_145-42    C    0.56250018    0.21139987    0.23110013    -0.13410000
opls_145-43    C    0.60000000    0.21139987    0.11389987    -0.17250000
opls_145-44    C    0.45690011    0.43609997    0.23379975    -0.12280000
opls_145-45    C    0.45669996    0.46709997    0.36149937    -0.13550000
opls_145-46    C    0.69060007    0.21150016    0.55179975    -0.11910000
opls_145-47    C    0.71960007    0.21139987    0.40720025    -0.13470000
opls_145-48    C    0.04330004    0.69419994    0.10400000    -0.13500000
opls_145-49    C    0.04330004    0.65909997    0.21330038    -0.17460000
opls_145-50    C    0.93749982    0.78860013    0.73110013    -0.13410000
opls_145-51    C    0.90000000    0.78860013    0.61389987    -0.17250000
opls_145-52    C    0.04309989    0.56390003    0.73379975    -0.12280000
opls_145-53    C    0.04330004    0.53290003    0.86149937    -0.13550000
opls_145-54    C    0.80939993    0.78849984    0.05179975    -0.11910000
opls_145-55    C    0.78039993    0.78860013    0.90720025    -0.13470000
opls_145-56    C    0.54330004    0.19419994    0.60400000    -0.13500000
opls_145-57    C    0.54330004    0.15909997    0.71330038    -0.17460000
opls_145-58    C    0.43749982    0.28860013    0.23110013    -0.13410000
opls_145-59    C    0.40000000    0.28860013    0.11389987    -0.17250000
opls_145-60    C    0.54309989    0.06390003    0.23379975    -0.12280000
opls_145-61    C    0.54330004    0.03290003    0.36149937    -0.13550000
opls_145-62    C    0.30939993    0.28850016    0.55179975    -0.11910000
opls_145-63    C    0.28039993    0.28860013    0.40720025    -0.13470000
opls_145-64    C    0.95669996    0.69419994    0.10400000    -0.13500000
opls_145-65    C    0.95669996    0.65909997    0.21330038    -0.17460000
opls_145-66    C    0.06249982    0.78860013    0.73110013    -0.13410000
opls_145-67    C    0.10000000    0.78860013    0.61389987    -0.17250000
opls_145-68    C    0.95690011    0.56390003    0.73379975    -0.12280000
opls_145-69    C    0.95669996    0.53290003    0.86149937    -0.13550000
opls_145-70    C    0.19060007    0.78849984    0.05179975    -0.11910000
opls_145-71    C    0.21960007    0.78860013    0.90720025    -0.13470000
opls_145-72    C    0.45669996    0.19419994    0.60400000    -0.13500000
opls_145-73    C    0.45669996    0.15909997    0.71330038    -0.17460000
opls_145-74    C    0.56250018    0.28860013    0.23110013    -0.13410000
opls_145-75    C    0.60000000    0.28860013    0.11389987    -0.17250000
opls_145-76    C    0.45690011    0.06390003    0.23379975    -0.12280000
opls_145-77    C    0.45669996    0.03290003    0.36149937    -0.13550000
opls_145-78    C    0.69060007    0.28850016    0.55179975    -0.11910000
opls_145-79    C    0.71960007    0.28860013    0.40720025    -0.13470000
opls_145-80    C    0.04330004    0.80580006    0.10400000    -0.13500000
opls_145-81    C    0.04330004    0.84090003    0.21330038    -0.17460000
opls_145-82    C    0.93749982    0.71139987    0.73110013    -0.13410000
opls_145-83    C    0.90000000    0.71139987    0.61389987    -0.17250000
opls_145-84    C    0.04309989    0.93609997    0.73379975    -0.12280000
opls_145-85    C    0.04330004    0.96709997    0.86149937    -0.13550000
opls_145-86    C    0.80939993    0.71150016    0.05179975    -0.11910000
opls_145-87    C    0.78039993    0.71139987    0.90720025    -0.13470000
opls_145-88    C    0.54330004    0.30580006    0.60400000    -0.13500000
opls_145-89    C    0.54330004    0.34090003    0.71330038    -0.17460000
opls_145-90    C    0.43749982    0.21139987    0.23110013    -0.13410000
opls_145-91    C    0.40000000    0.21139987    0.11389987    -0.17250000
opls_145-92    C    0.54309989    0.43609997    0.23379975    -0.12280000
opls_145-93    C    0.54330004    0.46709997    0.36149937    -0.13550000
opls_145-94    C    0.30939993    0.21150016    0.55179975    -0.11910000
opls_145-95    C    0.28039993    0.21139987    0.40720025    -0.13470000
opls_145-96    C    0.04330004    0.19419994    0.89600000    -0.13500000
opls_145-97    C    0.04330004    0.15909997    0.78669962    -0.17460000
opls_145-98    C    0.93749982    0.28860013    0.26889987    -0.13410000
opls_145-99    C    0.90000000    0.28860013    0.38610013    -0.17250000
opls_145-100    C    0.04309989    0.06390003    0.26620025    -0.12280000
opls_145-101    C    0.04330004    0.03290003    0.13849937    -0.13550000
opls_145-102    C    0.80939993    0.28850016    0.94820025    -0.11910000
opls_145-103    C    0.78039993    0.28860013    0.09279975    -0.13470000
opls_145-104    C    0.54330004    0.69419994    0.39600000    -0.13500000
opls_145-105    C    0.54330004    0.65909997    0.28669962    -0.17460000
opls_145-106    C    0.43749982    0.78860013    0.76889987    -0.13410000
opls_145-107    C    0.40000000    0.78860013    0.88610013    -0.17250000
opls_145-108    C    0.54309989    0.56390003    0.76620025    -0.12280000
opls_145-109    C    0.54330004    0.53290003    0.63850063    -0.13550000
opls_145-110    C    0.30939993    0.78849984    0.44820025    -0.11910000
opls_145-111    C    0.28039993    0.78860013    0.59279975    -0.13470000
opls_145-112    C    0.95669996    0.30580006    0.89600000    -0.13500000
opls_145-113    C    0.95669996    0.34090003    0.78669962    -0.17460000
opls_145-114    C    0.06249982    0.21139987    0.26889987    -0.13410000
opls_145-115    C    0.10000000    0.21139987    0.38610013    -0.17250000
opls_145-116    C    0.95690011    0.43609997    0.26620025    -0.12280000
opls_145-117    C    0.95669996    0.46709997    0.13849937    -0.13550000
opls_145-118    C    0.19060007    0.21150016    0.94820025    -0.11910000
opls_145-119    C    0.21960007    0.21139987    0.09279975    -0.13470000
opls_145-120    C    0.45669996    0.80580006    0.39600000    -0.13500000
opls_145-121    C    0.45669996    0.84090003    0.28669962    -0.17460000
opls_145-122    C    0.56250018    0.71139987    0.76889987    -0.13400000
opls_145-123    C    0.60000000    0.71139987    0.88610013    -0.17250000
opls_145-124    C    0.45690011    0.93609997    0.76620025    -0.12280000
opls_145-125    C    0.45669996    0.96709997    0.63850063    -0.13550000
opls_145-126    C    0.69060007    0.71150016    0.44820025    -0.11910000
opls_145-127    C    0.71960007    0.71139987    0.59279975    -0.13470000
opls_701-128    C    1.00000000    0.25000000    0.08179975    0.00100000
opls_701-129    C    0.50000000    0.75000000    0.58179975    0.00100000
opls_701-130    C    1.00000000    0.75000000    0.91820025    0.00100000
opls_701-131    C    0.50000000    0.25000000    0.41820025    0.00100000
opls_700-132    C    1.00000000    0.28890003    0.96030038    0.06410000
opls_145-133    C    1.00000000    0.35900000    0.73400000    0.19360000
opls_700-134    C    1.00000000    0.48339987    0.07020025    0.06130000
opls_700-135    C    1.00000000    0.42070010    0.33079975    0.06500000
opls_142-136    C    0.00000000    0.38590003    0.45479975    0.05050000
opls_700-137    C    0.50000000    0.78890003    0.46030038    0.06410000
opls_145-138    C    0.50000000    0.85900000    0.23400000    0.19360000
opls_700-139    C    0.50000000    0.98339987    0.57020025    0.06130000
opls_700-140    C    0.50000000    0.92070010    0.83079975    0.06500000
opls_142-141    C    0.50000000    0.88590003    0.95479975    0.05050000
opls_700-142    C    1.00000000    0.21109997    0.96030038    0.06410000
opls_145-143    C    1.00000000    0.14100000    0.73400000    0.19360000
opls_700-144    C    1.00000000    0.01660013    0.07020025    0.06140000
opls_700-145    C    1.00000000    0.07929990    0.33079975    0.06500000
opls_142-146    C    1.00000000    0.11409997    0.45479975    0.05050000
opls_700-147    C    0.50000000    0.71109997    0.46030038    0.06410000
opls_145-148    C    0.50000000    0.64100000    0.23400000    0.19360000
opls_700-149    C    0.50000000    0.51660013    0.57020025    0.06130000
opls_700-150    C    0.50000000    0.57929990    0.83079975    0.06500000
opls_142-151    C    0.50000000    0.61409997    0.95479975    0.05050000
opls_700-152    C    1.00000000    0.78890003    0.03969962    0.06420000
opls_145-153    C    1.00000000    0.85900000    0.26600000    0.19360000
opls_700-154    C    0.00000000    0.98339987    0.92979975    0.06130000
opls_700-155    C    1.00000000    0.92070010    0.66920025    0.06500000
opls_142-156    C    1.00000000    0.88590003    0.54520025    0.05050000
opls_700-157    C    0.50000000    0.28890003    0.53969962    0.06410000
opls_145-158    C    0.50000000    0.35900000    0.76600000    0.19360000
opls_700-159    C    0.50000000    0.48339987    0.42979975    0.06130000
opls_700-160    C    0.50000000    0.42070010    0.16920025    0.06500000
opls_142-161    C    0.50000000    0.38590003    0.04520025    0.05050000
opls_700-162    C    1.00000000    0.71109997    0.03969962    0.06410000
opls_145-163    C    1.00000000    0.64100000    0.26600000    0.19360000
opls_700-164    C    1.00000000    0.51660013    0.92979975    0.06130000
opls_700-165    C    1.00000000    0.57929990    0.66920025    0.06500000
opls_142-166    C    1.00000000    0.61409997    0.54520025    0.05050000
opls_700-167    C    0.50000000    0.21109997    0.53969962    0.06410000
opls_145-168    C    0.50000000    0.14100000    0.76600000    0.19360000
opls_700-169    C    0.50000000    0.01660013    0.42979975    0.06130000
opls_700-170    C    0.50000000    0.07929990    0.16920025    0.06500000
opls_142-171    C    0.50000000    0.11409997    0.04520025    0.05050000
opls_700-172    C    0.95630004    0.25000000    0.20359949    0.07850000
opls_145-173    C    0.88109989    0.25000000    0.44479975    0.18890000
opls_700-174    C    0.76530004    0.25000000    0.17040051    0.06130000
opls_700-175    C    0.82390011    0.25000000    0.87550063    0.06260000
opls_142-176    C    0.85849982    0.25000000    0.73640051    0.08380000
opls_700-177    C    0.45630004    0.75000000    0.70359949    0.07850000
opls_145-178    C    0.38109989    0.75000000    0.94479975    0.18890000
opls_700-179    C    0.26530004    0.75000000    0.67040051    0.06130000
opls_700-180    C    0.32390011    0.75000000    0.37550063    0.06260000
opls_142-181    C    0.35849982    0.75000000    0.23640051    0.08350000
opls_700-182    C    0.04369996    0.25000000    0.20359949    0.07850000
opls_145-183    C    0.11890011    0.25000000    0.44479975    0.18890000
opls_700-184    C    0.23469996    0.25000000    0.17040051    0.06130000
opls_700-185    C    0.17609989    0.25000000    0.87550063    0.06260000
opls_142-186    C    0.14149982    0.25000000    0.73640051    0.08350000
opls_700-187    C    0.54369996    0.75000000    0.70359949    0.07850000
opls_145-188    C    0.61890011    0.75000000    0.94479975    0.18890000
opls_700-189    C    0.73469996    0.75000000    0.67040051    0.06130000
opls_700-190    C    0.67609989    0.75000000    0.37550063    0.06260000
opls_142-191    C    0.64149982    0.75000000    0.23640051    0.08350000
opls_700-192    C    0.04369996    0.75000000    0.79640051    0.07850000
opls_145-193    C    0.11890011    0.75000000    0.55520025    0.18890000
opls_700-194    C    0.23469996    0.75000000    0.82959949    0.06130000
opls_700-195    C    0.17609989    0.75000000    0.12449937    0.06260000
opls_142-196    C    0.14149982    0.75000000    0.26359949    0.08350000
opls_700-197    C    0.54369996    0.25000000    0.29640051    0.07860000
opls_145-198    C    0.61890011    0.25000000    0.05520025    0.18890000
opls_700-199    C    0.73469996    0.25000000    0.32959949    0.06130000
opls_700-200    C    0.67609989    0.25000000    0.62449937    0.06260000
opls_142-201    C    0.64149982    0.25000000    0.76359949    0.08350000
opls_700-202    C    0.95630004    0.75000000    0.79640051    0.07850000
opls_145-203    C    0.88109989    0.75000000    0.55520025    0.18890000
opls_700-204    C    0.76530004    0.75000000    0.82959949    0.06140000
opls_700-205    C    0.82390011    0.75000000    0.12449937    0.06260000
opls_142-206    C    0.85849982    0.75000000    0.26359949    0.08390000
opls_700-207    C    0.45630004    0.25000000    0.29640051    0.07850000
opls_145-208    C    0.38109989    0.25000000    0.05520025    0.18890000
opls_700-209    C    0.26530004    0.25000000    0.32959949    0.06130000
opls_700-210    C    0.32390011    0.25000000    0.62449937    0.06260000
opls_142-211    C    0.35849982    0.25000000    0.76359949    0.08350000
opls_146-212    H    0.07730004    0.29229990    0.93220025    0.10710000
opls_146-213    H    0.07690011    0.35370010    0.74120025    0.11680000
opls_146-214    H    0.95160007    0.18100000    0.22849937    0.11050000
opls_146-215    H    0.88630004    0.18139987    0.43379975    0.11360000
opls_146-216    H    0.07690011    0.42380006    0.31349937    0.10910000
opls_146-217    H    0.07800000    0.47719994    0.09540051    0.09270000
opls_146-218    H    0.82120014    0.18149984    0.89479975    0.11710000
opls_146-219    H    0.77100000    0.18039987    0.14150063    0.09580000
opls_146-220    H    0.57730004    0.79229990    0.43220025    0.10710000
opls_146-221    H    0.57690011    0.85370010    0.24120025    0.11680000
opls_146-222    H    0.45160007    0.68100000    0.72850063    0.11050000
opls_146-223    H    0.38630004    0.68139987    0.93379975    0.11350000
opls_146-224    H    0.57690011    0.92380006    0.81350063    0.10910000
opls_146-225    H    0.57800000    0.97719994    0.59540051    0.09270000
opls_146-226    H    0.32120014    0.68150016    0.39479975    0.11710000
opls_146-227    H    0.27100000    0.68039987    0.64150063    0.09580000
opls_146-228    H    0.92269996    0.20770010    0.93220025    0.10710000
opls_146-229    H    0.92309989    0.14629990    0.74120025    0.11680000
opls_146-230    H    0.04839993    0.31900000    0.22849937    0.11060000
opls_146-231    H    0.11369996    0.31860013    0.43379975    0.11350000
opls_146-232    H    0.92309989    0.07619994    0.31349937    0.10910000
opls_146-233    H    0.92200000    0.02280006    0.09540051    0.09270000
opls_146-234    H    0.17879986    0.31849984    0.89479975    0.11710000
opls_146-235    H    0.22900000    0.31960013    0.14150063    0.09580000
opls_146-236    H    0.42269996    0.70770010    0.43220025    0.10710000
opls_146-237    H    0.42309989    0.64629990    0.24120025    0.11680000
opls_146-238    H    0.54839993    0.81900000    0.72850063    0.11050000
opls_146-239    H    0.61369996    0.81860013    0.93379975    0.11350000
opls_146-240    H    0.42309989    0.57619994    0.81350063    0.10910000
opls_146-241    H    0.42200000    0.52280006    0.59540051    0.09270000
opls_146-242    H    0.67879986    0.81849984    0.39479975    0.11710000
opls_146-243    H    0.72900000    0.81960013    0.64150063    0.09580000
opls_146-244    H    0.92269996    0.79229990    0.06779975    0.10710000
opls_146-245    H    0.92309989    0.85370010    0.25879975    0.11680000
opls_146-246    H    0.04839993    0.68100000    0.77149937    0.11050000
opls_146-247    H    0.11369996    0.68139987    0.56620025    0.11350000
opls_146-248    H    0.92309989    0.92380006    0.68649937    0.10920000
opls_146-249    H    0.92200000    0.97719994    0.90459949    0.09270000
opls_146-250    H    0.17879986    0.68150016    0.10520025    0.11710000
opls_146-251    H    0.22900000    0.68039987    0.85849937    0.09580000
opls_146-252    H    0.42269996    0.29229990    0.56779975    0.10710000
opls_146-253    H    0.42309989    0.35370010    0.75879975    0.11680000
opls_146-254    H    0.54839993    0.18100000    0.27150063    0.11050000
opls_146-255    H    0.61369996    0.18139987    0.06620025    0.11350000
opls_146-256    H    0.42309989    0.42380006    0.18649937    0.10910000
opls_146-257    H    0.42200000    0.47719994    0.40459949    0.09270000
opls_146-258    H    0.67879986    0.18149984    0.60520025    0.11710000
opls_146-259    H    0.72900000    0.18039987    0.35850063    0.09580000
opls_146-260    H    0.07730004    0.70770010    0.06779975    0.10710000
opls_146-261    H    0.07690011    0.64629990    0.25879975    0.11680000
opls_146-262    H    0.95160007    0.81900000    0.77149937    0.11050000
opls_146-263    H    0.88630004    0.81860013    0.56620025    0.11350000
opls_146-264    H    0.07690011    0.57619994    0.68649937    0.10910000
opls_146-265    H    0.07800000    0.52280006    0.90459949    0.09270000
opls_146-266    H    0.82120014    0.81849984    0.10520025    0.11710000
opls_146-267    H    0.77100000    0.81960013    0.85849937    0.09580000
opls_146-268    H    0.57730004    0.20770010    0.56779975    0.10710000
opls_146-269    H    0.57690011    0.14629990    0.75879975    0.11680000
opls_146-270    H    0.45160007    0.31900000    0.27150063    0.11050000
opls_146-271    H    0.38630004    0.31860013    0.06620025    0.11350000
opls_146-272    H    0.57690011    0.07619994    0.18649937    0.10910000
opls_146-273    H    0.57800000    0.02280006    0.40459949    0.09270000
opls_146-274    H    0.32120014    0.31849984    0.60520025    0.11710000
opls_146-275    H    0.27100000    0.31960013    0.35850063    0.09580000
opls_146-276    H    0.92269996    0.70770010    0.06779975    0.10710000
opls_146-277    H    0.92309989    0.64629990    0.25879975    0.11690000
opls_146-278    H    0.04839993    0.81900000    0.77149937    0.11050000
opls_146-279    H    0.11369996    0.81860013    0.56620025    0.11350000
opls_146-280    H    0.92309989    0.57619994    0.68649937    0.10910000
opls_146-281    H    0.92200000    0.52280006    0.90459949    0.09270000
opls_146-282    H    0.17879986    0.81849984    0.10520025    0.11710000
opls_146-283    H    0.22900000    0.81960013    0.85849937    0.09580000
opls_146-284    H    0.42269996    0.20770010    0.56779975    0.10710000
opls_146-285    H    0.42309989    0.14629990    0.75879975    0.11680000
opls_146-286    H    0.54839993    0.31900000    0.27150063    0.11050000
opls_146-287    H    0.61369996    0.31860013    0.06620025    0.11350000
opls_146-288    H    0.42309989    0.07619994    0.18649937    0.10910000
opls_146-289    H    0.42200000    0.02280006    0.40459949    0.09270000
opls_146-290    H    0.67879986    0.31849984    0.60520025    0.11710000
opls_146-291    H    0.72900000    0.31960013    0.35850063    0.09580000
opls_146-292    H    0.07730004    0.79229990    0.06779975    0.10710000
opls_146-293    H    0.07690011    0.85370010    0.25879975    0.11680000
opls_146-294    H    0.95160007    0.68100000    0.77149937    0.11050000
opls_146-295    H    0.88630004    0.68139987    0.56620025    0.11350000
opls_146-296    H    0.07690011    0.92380006    0.68649937    0.10910000
opls_146-297    H    0.07800000    0.97719994    0.90459949    0.09270000
opls_146-298    H    0.82120014    0.68150016    0.10520025    0.11710000
opls_146-299    H    0.77100000    0.68039987    0.85849937    0.09580000
opls_146-300    H    0.57730004    0.29229990    0.56779975    0.10710000
opls_146-301    H    0.57690011    0.35370010    0.75879975    0.11680000
opls_146-302    H    0.45160007    0.18100000    0.27150063    0.11050000
opls_146-303    H    0.38630004    0.18139987    0.06620025    0.11350000
opls_146-304    H    0.57690011    0.42380006    0.18649937    0.10910000
opls_146-305    H    0.57800000    0.47719994    0.40459949    0.09270000
opls_146-306    H    0.32120014    0.18149984    0.60520025    0.11710000
opls_146-307    H    0.27100000    0.18039987    0.35850063    0.09580000
opls_146-308    H    0.07730004    0.20770010    0.93220025    0.10710000
opls_146-309    H    0.07690011    0.14629990    0.74120025    0.11690000
opls_146-310    H    0.95160007    0.31900000    0.22849937    0.11050000
opls_146-311    H    0.88630004    0.31860013    0.43379975    0.11350000
opls_146-312    H    0.07690011    0.07619994    0.31349937    0.10910000
opls_146-313    H    0.07800000    0.02280006    0.09540051    0.09270000
opls_146-314    H    0.82120014    0.31849984    0.89479975    0.11710000
opls_146-315    H    0.77100000    0.31960013    0.14150063    0.09580000
opls_146-316    H    0.57730004    0.70770010    0.43220025    0.10710000
opls_146-317    H    0.57690011    0.64629990    0.24120025    0.11680000
opls_146-318    H    0.45160007    0.81900000    0.72850063    0.11050000
opls_146-319    H    0.38630004    0.81860013    0.93379975    0.11350000
opls_146-320    H    0.57690011    0.57619994    0.81350063    0.10910000
opls_146-321    H    0.57800000    0.52280006    0.59540051    0.09270000
opls_146-322    H    0.32120014    0.81849984    0.39479975    0.11710000
opls_146-323    H    0.27100000    0.81960013    0.64150063    0.09580000
opls_146-324    H    0.92269996    0.29229990    0.93220025    0.10710000
opls_146-325    H    0.92309989    0.35370010    0.74120025    0.11680000
opls_146-326    H    0.04839993    0.18100000    0.22849937    0.11050000
opls_146-327    H    0.11369996    0.18139987    0.43379975    0.11350000
opls_146-328    H    0.92309989    0.42380006    0.31349937    0.10910000
opls_146-329    H    0.92200000    0.47719994    0.09540051    0.09270000
opls_146-330    H    0.17879986    0.18149984    0.89479975    0.11710000
opls_146-331    H    0.22900000    0.18039987    0.14150063    0.09580000
opls_146-332    H    0.42269996    0.79229990    0.43220025    0.10710000
opls_146-333    H    0.42309989    0.85370010    0.24120025    0.11680000
opls_146-334    H    0.54839993    0.68100000    0.72850063    0.11050000
opls_146-335    H    0.61369996    0.68139987    0.93379975    0.11350000
opls_146-336    H    0.42309989    0.92380006    0.81350063    0.10910000
opls_146-337    H    0.42200000    0.97719994    0.59540051    0.09270000
opls_146-338    H    0.67879986    0.68150016    0.39479975    0.11710000
opls_146-339    H    0.72900000    0.68039987    0.64150063    0.09580000
opls_144-340    H    0.00000000    0.35339987    0.41000000    0.09680000
opls_144-341    H    0.50000000    0.85339987    0.91000000    0.09680000
opls_144-342    H    1.00000000    0.14660013    0.41000000    0.09680000
opls_144-343    H    0.50000000    0.64660013    0.91000000    0.09680000
opls_144-344    H    1.00000000    0.85339987    0.59000000    0.09680000
opls_144-345    H    0.50000000    0.35339987    0.09000000    0.09680000
opls_144-346    H    1.00000000    0.64660013    0.59000000    0.09680000
opls_144-347    H    0.50000000    0.14660013    0.09000000    0.09680000
opls_144-348    H    0.89616004    0.25000000    0.76580989    0.09670000
opls_144-349    H    0.39615002    0.75000000    0.26580989    0.09860000
opls_144-350    H    0.10384998    0.25000000    0.76580989    0.09860000
opls_144-351    H    0.60384998    0.75000000    0.26580989    0.09860000
opls_144-352    H    0.10384998    0.75000000    0.23419011    0.09870000
opls_144-353    H    0.60384998    0.25000000    0.73419011    0.09860000
opls_144-354    H    0.89616004    0.75000000    0.23419011    0.09670000
opls_144-355    H    0.39615002    0.25000000    0.73419011    0.09860000
opls_750-356    N    0.00000000    0.39360013    0.61600000    -0.30820000
opls_750-357    N    0.50000000    0.89360013    0.11600000    -0.30820000
opls_750-358    N    1.00000000    0.10639987    0.61600000    -0.30820000
opls_750-359    N    0.50000000    0.60639987    0.11600000    -0.30810000
opls_750-360    N    1.00000000    0.89360013    0.38400000    -0.30820000
opls_750-361    N    0.50000000    0.39360013    0.88400000    -0.30820000
opls_750-362    N    1.00000000    0.60639987    0.38400000    -0.30820000
opls_750-363    N    0.50000000    0.10639987    0.88400000    -0.30820000
opls_750-364    N    0.84490011    0.25000000    0.57269962    -0.26540000
opls_750-365    N    0.34490011    0.75000000    0.07269962    -0.26530000
opls_750-366    N    0.15509989    0.25000000    0.57269962    -0.26540000
opls_750-367    N    0.65509989    0.75000000    0.07269962    -0.26540000
opls_750-368    N    0.15509989    0.75000000    0.42730038    -0.26540000
opls_750-369    N    0.65509989    0.25000000    0.92730038    -0.26540000
opls_750-370    N    0.84490011    0.75000000    0.42730038    -0.26540000
opls_750-371    N    0.34490011    0.25000000    0.92730038    -0.26540000
