#======================================================================
# Crystal Data Generated By AuToFF
#----------------------------------------------------------------------

data_AuToFF_phase_1

_cell_length_a                         26.1300
_cell_length_b                         26.1300
_cell_length_c                         3.6400
_cell_angle_alpha                      90.00
_cell_angle_beta                       90.00
_cell_angle_gamma                      120.00
_symmetry_space_group_name_H-M_alt     'P 1'
_symmetry_space_group_IT_number        1

loop_
_space_group_symop_operation_xyz
   'x, y, z'

loop_
   _atom_site_label
   _atom_site_type_symbol
   _atom_site_fract_x
   _atom_site_fract_y
   _atom_site_fract_z
   _atom_site_charge
opls_145-0    C    0.26848008    0.82146992    0.41650000    -0.16330000
opls_523-1    C    0.29957027    0.79072032    0.40462912    -0.12650000
opls_700-2    C    0.27009002    0.72924013    0.46343132    -0.00310000
opls_523-3    C    0.20880018    0.69931027    0.53043956    -0.12670000
opls_145-4    C    0.17791992    0.73027994    0.54400000    -0.16990000
opls_145-5    C    0.20788006    0.79193999    0.49173901    0.20000000
opls_531-6    C    0.30307999    0.69658018    0.45714011    0.34910000
opls_145-7    C    0.09447021    0.22698023    0.48557967    -0.12570000
opls_145-8    C    0.05796023    0.16551020    0.47873077    -0.12670000
opls_700-9    C    0.07674009    0.12815985    0.63429945    0.06560000
opls_145-10    C    0.13369007    0.15461014    0.79223077    -0.12670000
opls_145-11    C    0.17057988    0.21602007    0.79168132    -0.12120000
opls_700-12    C    0.15117981    0.25274998    0.64098901    0.06170000
opls_700-13    C    0.03731005    0.06229021    0.63259890    0.07050000
opls_145-14    C    0.97539978    0.03672991    0.63240934    -0.17200000
opls_142-15    C    0.12710994    0.80956011    0.64976099    0.07200000
opls_145-16    C    0.17852995    0.44701015    0.41650000    -0.16330000
opls_523-17    C    0.20927998    0.50885005    0.40462912    -0.12650000
opls_700-18    C    0.27075999    0.54085025    0.46343132    -0.00340000
opls_523-19    C    0.30068986    0.50948993    0.53043956    -0.12670000
opls_145-20    C    0.26972005    0.44763987    0.54400000    -0.16990000
opls_145-21    C    0.20806002    0.41594017    0.49173901    0.20000000
opls_531-22    C    0.30342005    0.60650026    0.45714011    0.34910000
opls_145-23    C    0.77302018    0.86749003    0.48557967    -0.12570000
opls_145-24    C    0.83448993    0.89245021    0.47873077    -0.12670000
opls_700-25    C    0.87184006    0.94858024    0.63429945    0.06560000
opls_145-26    C    0.84539006    0.97908016    0.79223077    -0.12670000
opls_145-27    C    0.78398002    0.95456012    0.79168132    -0.12120000
opls_700-28    C    0.74724987    0.89843008    0.64098901    0.06170000
opls_700-29    C    0.93771034    0.97502037    0.63259890    0.07050000
opls_145-30    C    0.96326997    0.93867006    0.63240934    -0.17200000
opls_142-31    C    0.19044024    0.31755021    0.64976099    0.07200000
opls_145-32    C    0.55298997    0.73151993    0.41650000    -0.16330000
opls_523-33    C    0.49114997    0.70043006    0.40462912    -0.12650000
opls_700-34    C    0.45915021    0.72991006    0.46343132    -0.00310000
opls_523-35    C    0.49051018    0.79120023    0.53043956    -0.12670000
opls_145-36    C    0.55236004    0.82208019    0.54400000    -0.16990000
opls_145-37    C    0.58406014    0.79212028    0.49173901    0.20000000
opls_531-38    C    0.39350019    0.69692000    0.45714011    0.34910000
opls_145-39    C    0.13251022    0.90553019    0.48557967    -0.12570000
opls_145-40    C    0.10755006    0.94204003    0.47873077    -0.12670000
opls_700-41    C    0.05142007    0.92326035    0.63429945    0.06560000
opls_145-42    C    0.02092009    0.86631014    0.79223077    -0.12670000
opls_145-43    C    0.04543994    0.82942025    0.79168132    -0.12120000
opls_700-44    C    0.10156994    0.84881993    0.64098901    0.06170000
opls_700-45    C    0.02498006    0.96269031    0.63259890    0.07050000
opls_145-46    C    0.06132987    0.02460003    0.63240934    -0.17200000
opls_142-47    C    0.68245003    0.87289012    0.64976099    0.07200000
opls_750-48    N    0.64751024    0.82152030    0.50343956    -0.32710000
opls_520-49    N    0.27358026    0.63662014    0.45737088    -0.42890000
opls_750-50    N    0.17847997    0.82599018    0.50343956    -0.32710000
opls_520-51    N    0.36338010    0.63695997    0.45737088    -0.42890000
opls_750-52    N    0.17401000    0.35248996    0.50343956    -0.32710000
opls_520-53    N    0.36304025    0.72642033    0.45737088    -0.42890000
opls_146-54    H    0.29149016    0.86871013    0.36954945    0.12030000
opls_526-55    H    0.34657998    0.81482012    0.34756044    0.12000000
opls_526-56    H    0.18492005    0.65195031    0.57531044    0.12110000
opls_146-57    H    0.13081021    0.70569007    0.59104945    0.12420000
opls_146-58    H    0.07903012    0.25454014    0.36176099    0.12000000
opls_146-59    H    0.01585001    0.14757986    0.33992033    0.12520000
opls_146-60    H    0.14937013    0.12829021    0.92898077    0.12450000
opls_146-61    H    0.21383992    0.23499022    0.91804121    0.12340000
opls_146-62    H    0.95640997    0.06509012    0.63260989    0.11910000
opls_144-63    H    0.10272988    0.76756002    0.78998077    0.10120000
opls_146-64    H    0.13129011    0.42278000    0.36954945    0.12030000
opls_526-65    H    0.18518016    0.53176024    0.34756044    0.12000000
opls_526-66    H    0.34804996    0.53297017    0.57531044    0.12110000
opls_146-67    H    0.29431004    0.42511989    0.59104945    0.12420000
opls_146-68    H    0.74546025    0.82449035    0.36176099    0.12000000
opls_146-69    H    0.85242011    0.86826999    0.33992033    0.12520000
opls_146-70    H    0.87171004    0.02108025    0.92898077    0.12450000
opls_146-71    H    0.76501034    0.97885037    0.91804121    0.12340000
opls_146-72    H    0.93491003    0.89132026    0.63260989    0.11910000
opls_144-73    H    0.23243990    0.33516990    0.78998077    0.10120000
opls_146-74    H    0.57722033    0.70851032    0.36954945    0.12030000
opls_526-75    H    0.46824009    0.65342009    0.34756044    0.12000000
opls_526-76    H    0.46702984    0.81507996    0.57531044    0.12110000
opls_146-77    H    0.57488013    0.86919004    0.59104945    0.12420000
opls_146-78    H    0.17550985    0.92096995    0.36176099    0.12000000
opls_146-79    H    0.13173026    0.98415015    0.33992033    0.12520000
opls_146-80    H    0.97892004    0.85062998    0.92898077    0.12450000
opls_146-81    H    0.02115018    0.78616030    0.91804121    0.12340000
opls_146-82    H    0.10868022    0.04359006    0.63260989    0.11910000
opls_144-83    H    0.66483022    0.89727008    0.78998077    0.10120000
