#======================================================================
# Crystal Data Generated By AuToFF
#----------------------------------------------------------------------

data_AuToFF_phase_1

_cell_length_a                         45.5200
_cell_length_b                         45.5200
_cell_length_c                         4.7944
_cell_angle_alpha                      90.00
_cell_angle_beta                       90.00
_cell_angle_gamma                      120.00
_symmetry_space_group_name_H-M_alt     'P 1'
_symmetry_space_group_IT_number        1

loop_
_space_group_symop_operation_xyz
   'x, y, z'

loop_
   _atom_site_label
   _atom_site_type_symbol
   _atom_site_fract_x
   _atom_site_fract_y
   _atom_site_fract_z
   _atom_site_charge
opls_520-0    N    0.36536005    0.67609004    0.16139037    -0.43130000
opls_900-1    N    0.42280002    0.57464002    0.81096905    -0.33000000
opls_520-2    N    0.63372002    0.31669004    0.79055982    -0.43110000
opls_900-3    N    0.55909010    0.41558003    0.67438053    -0.34990000
opls_238-4    N    0.49056987    0.48498991    0.65818038    -0.43190000
opls_520-5    N    0.32391000    0.68926991    0.16139037    -0.43130000
opls_900-6    N    0.42536007    0.84815994    0.81096905    -0.33000000
opls_520-7    N    0.68331001    0.31702995    0.79055982    -0.43120000
opls_900-8    N    0.58442003    0.14351009    0.67438053    -0.34990000
opls_238-9    N    0.51500988    0.00557995    0.65818038    -0.43180000
opls_520-10    N    0.31072995    0.63464005    0.16139037    -0.43130000
opls_900-11    N    0.15183992    0.57720004    0.81096905    -0.33000000
opls_520-12    N    0.68296997    0.36628001    0.79055982    -0.43120000
opls_900-13    N    0.85648987    0.44090988    0.67438053    -0.34990000
opls_238-14    N    0.99441991    0.50942988    0.65818038    -0.43180000
opls_531-15    C    0.34280999    0.64394995    0.16276072    0.29660000
opls_522-16    C    0.35313984    0.61958988    0.12863966    -0.00800000
opls_523-17    C    0.38308984    0.62535983    0.23496996    -0.23900000
opls_145-18    C    0.39436001    0.60389006    0.17575922    -0.23170000
opls_145-19    C    0.37616996    0.57666988    0.00449900    0.04990000
opls_145-20    C    0.34581991    0.57049000    0.90488904    -0.23900000
opls_523-21    C    0.33426991    0.59158991    0.96839021    -0.23170000
opls_137-22    C    0.38956997    0.55511006    0.91555982    0.08260000
opls_147-23    C    0.44357004    0.56086986    0.78703070    0.14100000
opls_145-24    C    0.47243993    0.57725991    0.63377899    -0.23890000
opls_147-25    C    0.55561992    0.46384002    0.80796971    0.00390000
opls_916-26    C    0.50936010    0.46887002    0.65139955    0.16310000
opls_145-27    C    0.53779991    0.48014991    0.81121100    -0.26720000
opls_145-28    C    0.49813985    0.44033989    0.49511096    -0.23890000
opls_234-29    C    0.50380996    0.51815990    0.66447939    0.31100000
opls_531-30    C    0.64997990    0.34967992    0.78967963    0.29660000
opls_522-31    C    0.63203991    0.36737992    0.80581929    0.00300000
opls_523-32    C    0.60689007    0.35802004    0.00030035    -0.23170000
opls_145-33    C    0.59117000    0.37603992    0.02920908    -0.23170000
opls_145-34    C    0.59975998    0.40325985    0.85940055    0.06380000
opls_145-35    C    0.62392002    0.41157993    0.65479935    -0.23230000
opls_523-36    C    0.64047992    0.39425993    0.63328049    -0.23170000
opls_137-37    C    0.58247990    0.42255999    0.89764934    0.08260000
opls_147-38    C    0.54335005    0.43451996    0.65628024    0.14200000
opls_145-39    C    0.51498990    0.42327990    0.49744076    -0.23890000
opls_147-40    C    0.43445001    0.53044000    0.90907934    0.00300000
opls_145-41    C    0.48298004    0.53281992    0.70839938    -0.01880000
opls_145-42    C    0.45435000    0.51668989    0.86743910    -0.15220000
opls_145-43    C    0.49198996    0.56339995    0.59490030    -0.23890000
opls_136-44    C    0.38924004    0.53383993    0.15615093    -0.33750000
opls_158-45    C    0.40205993    0.51143006    0.06033080    0.12590000
opls_182-46    C    0.39240991    0.46192000    0.25979059    0.02390000
opls_152-47    C    0.35859996    0.44225001    0.38892041    -0.00870000
opls_136-48    C    0.60597997    0.45936987    0.90922952    -0.33300000
opls_158-49    C    0.58789004    0.47857006    0.96330928    0.12600000
opls_182-50    C    0.63852997    0.52901997    0.97685008    0.02390000
opls_152-51    C    0.64127001    0.53372983    0.29088937    -0.00870000
opls_531-52    C    0.35604988    0.69885986    0.16276072    0.29660000
opls_522-53    C    0.38041002    0.73354983    0.12863966    -0.00800000
opls_523-54    C    0.37464007    0.75773005    0.23496996    -0.23900000
opls_145-55    C    0.39610991    0.79046981    0.17575922    -0.23170000
opls_145-56    C    0.42332992    0.79949992    0.00449900    0.04990000
opls_145-57    C    0.42950983    0.77532985    0.90488904    -0.23900000
opls_523-58    C    0.40841002    0.74267988    0.96839021    -0.23170000
opls_137-59    C    0.44488995    0.83446005    0.91555982    0.08260000
opls_147-60    C    0.43913009    0.88269999    0.78703070    0.14100000
opls_145-61    C    0.42274004    0.89517999    0.63377899    -0.23890000
opls_147-62    C    0.53615995    0.09177991    0.80796971    0.00390000
opls_916-63    C    0.53113016    0.04049011    0.65139955    0.16310000
opls_145-64    C    0.51985007    0.05765004    0.81121100    -0.26720000
opls_145-65    C    0.55966009    0.05779996    0.49511096    -0.23890000
opls_234-66    C    0.48183992    0.98564996    0.66447939    0.31100000
opls_531-67    C    0.65032003    0.30029999    0.78967963    0.29660000
opls_522-68    C    0.63262000    0.26466003    0.80581929    0.00300000
opls_523-69    C    0.64197999    0.24886991    0.00030035    -0.23170000
opls_145-70    C    0.62395995    0.21512992    0.02920908    -0.23170000
opls_145-71    C    0.59673988    0.19649998    0.85940055    0.06380000
opls_145-72    C    0.58842004    0.21234007    0.65479935    -0.23220000
opls_523-73    C    0.60574009    0.24622008    0.63328049    -0.23170000
opls_137-74    C    0.57743997    0.15991992    0.89764934    0.08260000
opls_147-75    C    0.56548003    0.10883001    0.65628024    0.14200000
opls_145-76    C    0.57671984    0.09170990    0.49744076    -0.23890000
opls_147-77    C    0.46955989    0.90400995    0.90907934    0.00300000
opls_145-78    C    0.46717991    0.95015991    0.70839938    -0.01880000
opls_145-79    C    0.48330995    0.93765987    0.86743910    -0.15220000
opls_145-80    C    0.43659989    0.92858995    0.59490030    -0.23900000
opls_136-81    C    0.46615997    0.85539990    0.15615093    -0.33740000
opls_158-82    C    0.48857002    0.89062993    0.06033080    0.12590000
opls_182-83    C    0.53807998    0.93048993    0.25979059    0.02390000
opls_152-84    C    0.55774987    0.91634992    0.38892041    -0.00870000
opls_136-85    C    0.54062987    0.14660992    0.90922952    -0.33290000
opls_158-86    C    0.52143004    0.10932010    0.96330928    0.12600000
opls_182-87    C    0.47098000    0.10951009    0.97685008    0.02390000
opls_152-88    C    0.46627005    0.10754010    0.29088937    -0.00870000
opls_531-89    C    0.30114000    0.65718994    0.16276072    0.29670000
opls_522-90    C    0.26645001    0.64686004    0.12863966    -0.00800000
opls_523-91    C    0.24226996    0.61690987    0.23496996    -0.23900000
opls_145-92    C    0.20952995    0.60563987    0.17575922    -0.23170000
opls_145-93    C    0.20049999    0.62382995    0.00449900    0.04990000
opls_145-94    C    0.22466992    0.65417990    0.90488904    -0.23890000
opls_523-95    C    0.25731994    0.66572995    0.96839021    -0.23160000
opls_137-96    C    0.16553986    0.61042990    0.91555982    0.08260000
opls_147-97    C    0.11729997    0.55642990    0.78703070    0.14100000
opls_145-98    C    0.10481991    0.52755985    0.63377899    -0.23890000
opls_147-99    C    0.90822013    0.44438007    0.80796971    0.00390000
opls_916-100    C    0.95950996    0.49063987    0.65139955    0.16310000
opls_145-101    C    0.94235002    0.46220005    0.81121100    -0.26720000
opls_145-102    C    0.94219994    0.50185990    0.49511096    -0.23890000
opls_234-103    C    0.01435000    0.49618989    0.66447939    0.31100000
opls_531-104    C    0.69970007    0.35002009    0.78967963    0.29660000
opls_522-105    C    0.73534009    0.36796006    0.80581929    0.00300000
opls_523-106    C    0.75112994    0.39311005    0.00030035    -0.23170000
opls_145-107    C    0.78486992    0.40882991    0.02920908    -0.23170000
opls_145-108    C    0.80350001    0.40023992    0.85940055    0.06390000
opls_145-109    C    0.78765994    0.37607999    0.65479935    -0.23230000
opls_523-110    C    0.75377999    0.35951999    0.63328049    -0.23160000
opls_137-111    C    0.84008000    0.41751984    0.89764934    0.08260000
opls_147-112    C    0.89116992    0.45665003    0.65628024    0.14200000
opls_145-113    C    0.90828990    0.48500995    0.49744076    -0.23880000
opls_147-114    C    0.09599010    0.56555005    0.90907934    0.00300000
opls_145-115    C    0.04983992    0.51701991    0.70839938    -0.01880000
opls_145-116    C    0.06233993    0.54564999    0.86743910    -0.15210000
opls_145-117    C    0.07141002    0.50800985    0.59490030    -0.23900000
opls_136-118    C    0.14459986    0.61075992    0.15615093    -0.33750000
opls_158-119    C    0.10937005    0.59794001    0.06033080    0.12750000
opls_182-120    C    0.06950998    0.60758982    0.25979059    0.02390000
opls_152-121    C    0.08364982    0.64139982    0.38892041    -0.00870000
opls_136-122    C    0.85339003    0.39401996    0.90922952    -0.33280000
opls_158-123    C    0.89067992    0.41210984    0.96330928    0.12600000
opls_182-124    C    0.89049002    0.36146994    0.97685008    0.02380000
opls_152-125    C    0.89245993    0.35873006    0.29088937    -0.00870000
opls_146-126    H    0.47946998    0.60055990    0.53943976    0.19200000
opls_526-127    H    0.39801008    0.64674994    0.35978016    0.19200000
opls_146-128    H    0.41786001    0.60916992    0.25410062    0.19190000
opls_146-129    H    0.33130989    0.54966988    0.77279952    0.19200000
opls_526-130    H    0.31123999    0.58676995    0.88152011    0.19210000
opls_526-131    H    0.47612007    0.43119005    0.37280994    0.19200000
opls_526-132    H    0.54614001    0.50159989    0.93991949    0.19210000
opls_140-133    H    0.58465011    0.15353000    0.09789963    0.04950000
opls_146-134    H    0.50566999    0.40099991    0.37863966    0.19220000
opls_526-135    H    0.60013993    0.33738003    0.13614008    0.19190000
opls_146-136    H    0.57233006    0.36874009    0.18548932    0.19260000
opls_146-137    H    0.63030005    0.43155001    0.51281912    0.19190000
opls_526-138    H    0.65950994    0.40149000    0.47882947    0.19260000
opls_526-139    H    0.51394007    0.57637004    0.47175038    0.19210000
opls_526-140    H    0.44777004    0.49354007    0.96095028    0.19210000
opls_140-141    H    0.46126010    0.83546001    0.74540088    0.05120000
opls_241-142    H    0.46535989    0.47030984    0.64196980    0.22790000
opls_910-143    H    0.42978000    0.59694004    0.71514058    0.22600000
opls_140-144    H    0.36414005    0.51898001    0.23883906    0.15380000
opls_140-145    H    0.40505988    0.54975993    0.32448064    0.08930000
opls_185-146    H    0.40868000    0.45511001    0.37031954    0.06960000
opls_185-147    H    0.39206992    0.45468993    0.03815910    0.04540000
opls_153-148    H    0.35870997    0.45032987    0.60571917    0.07010000
opls_153-149    H    0.35159998    0.41618985    0.39424954    0.15390000
opls_185-150    H    0.38412983    0.49431985    0.90659937    0.07570000
opls_185-151    H    0.58217987    0.47732987    0.18940013    0.04400000
opls_185-152    H    0.64963986    0.55362990    0.88343067    0.07200000
opls_185-153    H    0.65332007    0.51836993    0.90279076    0.08550000
opls_153-154    H    0.63354007    0.51022996    0.39520899    0.15420000
opls_153-155    H    0.62597987    0.54392986    0.36247080    0.15420000
opls_140-156    H    0.61892998    0.46747991    0.70718964    0.07980000
opls_140-157    H    0.62406992    0.46463984    0.07731103    0.07770000
opls_910-158    H    0.54922990    0.39342993    0.56818997    0.21780000
opls_146-159    H    0.39944002    0.87890992    0.53943976    0.19200000
opls_526-160    H    0.35324993    0.75125997    0.35978016    0.19200000
opls_146-161    H    0.39082998    0.80868983    0.25410062    0.19190000
opls_146-162    H    0.45033003    0.78163986    0.77279952    0.19210000
opls_526-163    H    0.41322995    0.72447001    0.88152011    0.19200000
opls_526-164    H    0.56880994    0.04493007    0.37280994    0.19200000
opls_526-165    H    0.49840002    0.04453993    0.93991949    0.19200000
opls_140-166    H    0.84646995    0.43112004    0.09789963    0.04950000
opls_146-167    H    0.59900003    0.10467009    0.37863966    0.19200000
opls_526-168    H    0.66261992    0.26276005    0.13614008    0.19190000
opls_146-169    H    0.63126008    0.20359002    0.18548932    0.19260000
opls_146-170    H    0.56844992    0.19875002    0.51281912    0.19190000
opls_526-171    H    0.59851000    0.25801999    0.47882947    0.19260000
opls_526-172    H    0.42362981    0.93756982    0.47175038    0.19200000
opls_526-173    H    0.50645992    0.95423003    0.96095028    0.19200000
opls_140-174    H    0.16453991    0.62579994    0.74540088    0.05120000
opls_241-175    H    0.52968994    0.99504991    0.64196980    0.22790000
opls_910-176    H    0.40305987    0.83283986    0.71514058    0.22610000
opls_140-177    H    0.48101992    0.84515980    0.23883906    0.15400000
opls_140-178    H    0.45024005    0.85529995    0.32448064    0.08930000
opls_185-179    H    0.54489000    0.95356998    0.37031954    0.06960000
opls_185-180    H    0.54530986    0.93737982    0.03815910    0.04540000
opls_153-181    H    0.54966996    0.90837990    0.60571917    0.07250000
opls_153-182    H    0.58380992    0.93540983    0.39424954    0.15390000
opls_185-183    H    0.50567995    0.88980982    0.90659937    0.07580000
opls_185-184    H    0.52266992    0.10484994    0.18940013    0.04400000
opls_185-185    H    0.44636994    0.09601009    0.88343067    0.07200000
opls_185-186    H    0.48163011    0.13495003    0.90279076    0.08550000
opls_153-187    H    0.48976986    0.12330993    0.39520899    0.15430000
opls_153-188    H    0.45607000    0.08204994    0.36247080    0.15420000
opls_140-189    H    0.53252000    0.15144992    0.70718964    0.07980000
opls_140-190    H    0.53536003    0.15943009    0.07731103    0.07770000
opls_910-191    H    0.60657008    0.15580009    0.56818997    0.21780000
opls_146-192    H    0.12108987    0.52052992    0.53943976    0.19200000
opls_526-193    H    0.24873986    0.60198983    0.35978016    0.19200000
opls_146-194    H    0.19130989    0.58213999    0.25410062    0.19190000
opls_146-195    H    0.21835995    0.66869001    0.77279952    0.19210000
opls_526-196    H    0.27553006    0.68876004    0.88152011    0.19200000
opls_526-197    H    0.95506999    0.52387987    0.37280994    0.19200000
opls_526-198    H    0.95546006    0.45385993    0.93991949    0.19200000
opls_140-199    H    0.56887994    0.41534996    0.09789963    0.04950000
opls_146-200    H    0.89532998    0.49432999    0.37863966    0.19200000
opls_526-201    H    0.73723994    0.39985992    0.13614008    0.19190000
opls_146-202    H    0.79640986    0.42766989    0.18548932    0.19260000
opls_146-203    H    0.80125003    0.36969997    0.51281912    0.19190000
opls_526-204    H    0.74198006    0.34049001    0.47882947    0.19270000
opls_526-205    H    0.06242999    0.48605988    0.47175038    0.19200000
opls_526-206    H    0.04577005    0.55222990    0.96095028    0.19200000
opls_140-207    H    0.37419999    0.53874005    0.74540088    0.05120000
opls_241-208    H    0.00495005    0.53464000    0.64196980    0.22790000
opls_910-209    H    0.16716001    0.57021984    0.71514058    0.22610000
opls_140-210    H    0.15483990    0.63585994    0.23883906    0.15380000
opls_140-211    H    0.14469994    0.59493987    0.32448064    0.08930000
opls_185-212    H    0.04643000    0.59132001    0.37031954    0.06960000
opls_185-213    H    0.06262009    0.60792999    0.03815910    0.04540000
opls_153-214    H    0.09161994    0.64128998    0.60571917    0.07250000
opls_153-215    H    0.06458997    0.64840006    0.39424954    0.15390000
opls_185-216    H    0.11018997    0.61586983    0.90659937    0.07570000
opls_185-217    H    0.89514986    0.41781993    0.18940013    0.04400000
opls_185-218    H    0.90398998    0.35036001    0.88343067    0.07200000
opls_185-219    H    0.86505003    0.34668003    0.90279076    0.08550000
opls_153-220    H    0.87668995    0.36645986    0.39520899    0.15420000
opls_153-221    H    0.91795000    0.37401995    0.36247080    0.15420000
opls_140-222    H    0.84854990    0.38106991    0.70718964    0.07980000
opls_140-223    H    0.84057005    0.37593008    0.07731103    0.07780000
opls_910-224    H    0.84420002    0.45076999    0.56818997    0.21780000
opls_236-225    O    0.53289987    0.53597988    0.62688970    -0.45600000
opls_180-226    O    0.40528001    0.49575993    0.30052978    -0.20180000
opls_180-227    O    0.60607002    0.51172001    0.87870015    -0.19780000
opls_236-228    O    0.46401995    0.99691995    0.62688970    -0.45590000
opls_180-229    O    0.50423995    0.90951989    0.30052978    -0.20200000
opls_180-230    O    0.48828005    0.09435009    0.87870015    -0.19780000
opls_236-231    O    0.00308005    0.46709992    0.62688970    -0.45590000
opls_180-232    O    0.09047991    0.59471993    0.30052978    -0.20200000
opls_180-233    O    0.90564993    0.39392991    0.87870015    -0.19780000
opls_151-234    Cl    0.32867994    0.44581989    0.19278950    0.02600000
opls_151-235    Cl    0.68271004    0.56102993    0.37877941    0.03410000
opls_151-236    Cl    0.55417990    0.88285980    0.19278950    0.02600000
opls_151-237    Cl    0.43897011    0.12168011    0.37877941    0.03410000
opls_151-238    Cl    0.11714003    0.67132005    0.19278950    0.02600000
opls_151-239    Cl    0.87832007    0.31728996    0.37877941    0.03410000
