#======================================================================
# Crystal Data Generated By AuToFF
#----------------------------------------------------------------------

data_AuToFF_phase_1

_cell_length_a                         35.2540
_cell_length_b                         35.2540
_cell_length_c                         4.0648
_cell_angle_alpha                      81.91
_cell_angle_beta                       90.00
_cell_angle_gamma                      90.00
_symmetry_space_group_name_H-M_alt     'P 1'
_symmetry_space_group_IT_number        1

loop_
_space_group_symop_operation_xyz
   'x, y, z'

loop_
   _atom_site_label
   _atom_site_type_symbol
   _atom_site_fract_x
   _atom_site_fract_y
   _atom_site_fract_z
   _atom_site_charge
opls_700-0    C    0.06896012    0.89351013    0.37309068    0.07890000
opls_145-1    C    0.09941992    0.90547987    0.15984027    -0.07770000
opls_145-2    C    0.13221989    0.88195011    0.16625128    -0.10150000
opls_145-3    C    0.13493986    0.84567996    0.38009060    0.22130000
opls_145-4    C    0.10382992    0.83246998    0.58279018    -0.10580000
opls_145-5    C    0.07123986    0.85631011    0.58015123    -0.08030000
opls_700-6    C    0.46444999    0.58214016    0.61740961    0.02120000
opls_700-7    C    0.46405996    0.54128992    0.56140028    0.03160000
opls_700-8    C    0.28822006    0.73685994    0.50526920    0.02200000
opls_700-9    C    0.28681001    0.77360016    0.63950024    0.04950000
opls_142-10    C    0.32519005    0.71685008    0.47293090    0.03590000
opls_700-11    C    0.25428008    0.71951995    0.40268069    0.04420000
opls_145-12    C    0.42979009    0.48082005    0.47096038    -0.08020000
opls_700-13    C    0.56780989    0.39316011    0.37891028    0.07890000
opls_145-14    C    0.59854995    0.40476994    0.16791118    -0.07770000
opls_145-15    C    0.63106002    0.38079002    0.17586033    -0.10140000
opls_145-16    C    0.63318006    0.34427016    0.38758998    0.22260000
opls_145-17    C    0.60172009    0.33145995    0.58788916    -0.10570000
opls_145-18    C    0.56949991    0.35582004    0.58447990    -0.08030000
opls_700-19    C    0.96337011    0.08129014    0.60668981    0.02120000
opls_700-20    C    0.96345010    0.04038998    0.55185087    0.07630000
opls_700-21    C    0.78531996    0.23368008    0.49705914    0.00800000
opls_700-22    C    0.78335990    0.27051992    0.62939918    0.04520000
opls_142-23    C    0.82259006    0.21422002    0.46510102    0.03460000
opls_700-24    C    0.75162989    0.21565000    0.39653060    0.04420000
opls_142-25    C    0.92989987    0.97942996    0.46294911    -0.07710000
opls_700-26    C    0.92834997    0.10623018    0.60847893    0.07890000
opls_145-27    C    0.89782011    0.09432003    0.82095902    -0.07760000
opls_145-28    C    0.86527997    0.11821997    0.81729133    -0.10150000
opls_145-29    C    0.86303994    0.15508991    0.61039974    0.22130000
opls_145-30    C    0.89393998    0.16770993    0.40248936    -0.10570000
opls_145-31    C    0.92622000    0.14348015    0.40222099    -0.08030000
opls_700-32    C    0.53304987    0.41853011    0.37982969    0.02120000
opls_700-33    C    0.53342997    0.45939003    0.43581913    0.03140000
opls_700-34    C    0.71405004    0.27073007    0.56870088    0.00910000
opls_700-35    C    0.71590997    0.23389009    0.43816983    0.04410000
opls_142-36    C    0.67701991    0.29035002    0.60097954    0.04650000
opls_700-37    C    0.74763998    0.28903993    0.66522129    0.04430000
opls_145-38    C    0.56770012    0.51984995    0.52647024    -0.08020000
opls_700-39    C    0.42972996    0.60754006    0.61888066    0.07890000
opls_145-40    C    0.39904011    0.59601012    0.83062025    -0.07770000
opls_145-41    C    0.36677994    0.62033006    0.82631146    -0.10150000
opls_145-42    C    0.36497986    0.65723008    0.61948946    0.22130000
opls_145-43    C    0.39605009    0.66946997    0.41241896    -0.10580000
opls_145-44    C    0.42804987    0.64482008    0.41279915    -0.08030000
opls_700-45    C    0.03389998    0.91837003    0.37446979    0.07340000
opls_142-46    C    0.03378992    0.95927993    0.42904036    -0.07850000
opls_700-47    C    0.21752993    0.77505002    0.57701033    0.00910000
opls_700-48    C    0.21884013    0.73838005    0.44351979    0.04430000
opls_142-49    C    0.18081012    0.79514991    0.61177140    0.04290000
opls_700-50    C    0.25137006    0.79267012    0.67564042    0.04340000
opls_142-51    C    0.06733988    0.02023010    0.51778060    -0.08020000
opls_700-52    C    0.92976003    0.89249008    0.37178114    0.07890000
opls_145-53    C    0.89913003    0.90406007    0.15947996    -0.07770000
opls_145-54    C    0.86681994    0.87984001    0.16376888    -0.10150000
opls_145-55    C    0.86492994    0.84297016    0.37089901    0.22130000
opls_145-56    C    0.89595989    0.83063995    0.57815090    -0.10570000
opls_145-57    C    0.92800987    0.85521992    0.57791980    -0.08030000
opls_700-58    C    0.53389006    0.58173999    0.61723069    0.02120000
opls_700-59    C    0.53385006    0.54088995    0.56126113    0.02140000
opls_700-60    C    0.71661996    0.72656996    0.41653890    0.00910000
opls_700-61    C    0.71834997    0.76331996    0.54841924    0.04430000
opls_142-62    C    0.67968004    0.70684017    0.38394963    0.04510000
opls_700-63    C    0.75023997    0.70844994    0.31893011    0.04340000
opls_145-64    C    0.56749986    0.48003998    0.47076905    -0.08020000
opls_700-65    C    0.42862001    0.39395997    0.37935010    0.07890000
opls_145-66    C    0.39799002    0.40583994    0.16803045    -0.07770000
opls_145-67    C    0.36530011    0.38213988    0.17561930    -0.10150000
opls_916-68    C    0.36300987    0.34548002    0.38527904    0.21380000
opls_145-69    C    0.39409996    0.33275015    0.59059023    -0.10580000
opls_145-70    C    0.42653004    0.35680992    0.58701945    -0.08030000
opls_700-71    C    0.03279997    0.08175011    0.60674945    0.02120000
opls_700-72    C    0.03323992    0.04086006    0.55203972    0.07630000
opls_700-73    C    0.21205991    0.23258010    0.45656047    0.02300000
opls_700-74    C    0.21496000    0.26937997    0.58764068    0.05180000
opls_142-75    C    0.17441992    0.21378003    0.42992001    0.03330000
opls_700-76    C    0.24515005    0.21376008    0.35352966    0.04440000
opls_142-77    C    0.06759999    0.98038993    0.46297893    -0.07710000
opls_700-78    C    0.06752993    0.10712019    0.60762910    0.07890000
opls_145-79    C    0.06940007    0.14419998    0.39894094    -0.08030000
opls_145-80    C    0.10169995    0.16849997    0.39448057    -0.10580000
opls_145-81    C    0.13286010    0.15603016    0.59962031    0.22100000
opls_145-82    C    0.13073013    0.11952001    0.81117105    -0.10150000
opls_145-83    C    0.09818006    0.09559010    0.81963954    -0.07770000
opls_700-84    C    0.46361009    0.41894016    0.37995890    0.02130000
opls_700-85    C    0.46363987    0.45978999    0.43594089    0.02150000
opls_700-86    C    0.28421995    0.26831997    0.51791975    0.02200000
opls_700-87    C    0.28129999    0.23152015    0.38639972    0.04950000
opls_142-88    C    0.32185993    0.28718013    0.54347929    0.07600000
opls_700-89    C    0.25111987    0.28701996    0.62243901    0.04830000
opls_145-90    C    0.42999007    0.52062994    0.52677092    -0.08020000
opls_700-91    C    0.56889998    0.60670010    0.61808053    0.07890000
opls_145-92    C    0.59952005    0.59477006    0.82960145    -0.07770000
opls_145-93    C    0.63227010    0.61837016    0.82166969    -0.10140000
opls_145-94    C    0.63476996    0.65476002    0.60887899    0.22110000
opls_145-95    C    0.60342997    0.66796007    0.40867921    -0.10580000
opls_145-96    C    0.57094004    0.64398989    0.41213071    -0.08020000
opls_700-97    C    0.96445992    0.91788989    0.37401008    0.07340000
opls_142-98    C    0.96400011    0.95879016    0.42885897    -0.07850000
opls_700-99    C    0.78774011    0.76387993    0.48768118    0.00960000
opls_700-100    C    0.78590004    0.72710012    0.35449131    0.04950000
opls_142-101    C    0.82491008    0.78356009    0.51826018    0.03460000
opls_700-102    C    0.75401004    0.78170991    0.58958137    0.04420000
opls_142-103    C    0.92963011    0.01929000    0.51753957    -0.08010000
opls_145-104    C    0.49928008    0.60109005    0.65095059    -0.03930000
opls_700-105    C    0.49863987    0.47998995    0.46527000    -0.02310000
opls_145-106    C    0.99796988    0.10071003    0.63948036    -0.03930000
opls_145-107    C    0.49822999    0.39958014    0.34631106    -0.03930000
opls_700-108    C    0.49885006    0.52069011    0.53182020    -0.02310000
opls_142-109    C    0.99930987    0.89894008    0.34159972    -0.03930000
opls_145-110    C    0.99847989    0.02020008    0.52309080    -0.05870000
opls_145-111    C    0.81642991    0.28911013    0.73439057    -0.08030000
opls_145-112    C    0.81425994    0.32498018    0.86921053    -0.07570000
opls_145-113    C    0.77930987    0.34303002    0.90422008    -0.07730000
opls_145-114    C    0.74629007    0.32537994    0.80395991    -0.08030000
opls_145-115    C    0.68260992    0.21500994    0.34198985    -0.08030000
opls_145-116    C    0.68456005    0.17951991    0.20152920    -0.07610000
opls_145-117    C    0.71955012    0.16230008    0.15139911    -0.07730000
opls_145-118    C    0.75278011    0.18009996    0.24630932    -0.08030000
opls_145-119    C    0.81901004    0.70866987    0.24861033    -0.08030000
opls_145-120    C    0.81693992    0.67281008    0.11342012    -0.07560000
opls_145-121    C    0.78204998    0.65459987    0.07922064    -0.07730000
opls_145-122    C    0.74898990    0.67209998    0.18042009    -0.08020000
opls_145-123    C    0.32015998    0.79158002    0.74557007    -0.08030000
opls_145-124    C    0.31853010    0.82741000    0.88146101    -0.07570000
opls_145-125    C    0.28385006    0.84605005    0.91589904    -0.07720000
opls_145-126    C    0.25056986    0.82902001    0.81432934    -0.08020000
opls_145-127    C    0.18526011    0.72013989    0.34606009    -0.08030000
opls_145-128    C    0.18665995    0.68467015    0.20483907    -0.07570000
opls_145-129    C    0.22137999    0.66683006    0.15555881    -0.07730000
opls_145-130    C    0.25487009    0.68400006    0.25193013    -0.08020000
opls_145-131    C    0.18235009    0.28869000    0.69345953    -0.08030000
opls_145-132    C    0.18536989    0.32422017    0.83225034    -0.07610000
opls_145-133    C    0.22077013    0.34102992    0.87243094    -0.07730000
opls_145-134    C    0.25334997    0.32267009    0.77066990    -0.08030000
opls_145-135    C    0.31385999    0.21232988    0.27820035    -0.08030000
opls_145-136    C    0.31081012    0.17668998    0.14104957    -0.07610000
opls_145-137    C    0.27543995    0.15961013    0.10519018    -0.07730000
opls_145-138    C    0.24291002    0.17789008    0.20842973    -0.08020000
opls_145-139    C    0.68500000    0.78204013    0.64521051    -0.08030000
opls_145-140    C    0.68684007    0.81750013    0.78614080    -0.07610000
opls_145-141    C    0.72177001    0.83486007    0.83600997    -0.07730000
opls_145-142    C    0.75504992    0.81723007    0.74027975    -0.08030000
opls_750-143    N    0.33087990    0.68059007    0.62429025    -0.18010000
opls_750-144    N    0.82866001    0.17799990    0.61561055    -0.17930000
opls_750-145    N    0.66759999    0.32135007    0.38841994    -0.19190000
opls_750-146    N    0.16933993    0.82288007    0.37797099    -0.19490000
opls_750-147    N    0.66930987    0.67741997    0.60812110    -0.19170000
opls_750-148    N    0.16745986    0.17865997    0.59745100    -0.17940000
opls_238-149    N    0.32831991    0.32298990    0.38647924    -0.27300000
opls_750-150    N    0.83071992    0.81978996    0.36707974    -0.17900000
opls_146-151    H    0.09756992    0.93370006    0.98514038    0.05030000
opls_146-152    H    0.15741987    0.89152998    0.99926944    0.05030000
opls_146-153    H    0.10516991    0.80329009    0.74381077    0.05030000
opls_146-154    H    0.04640012    0.84547991    0.74699142    0.05030000
opls_144-155    H    0.34910989    0.73216015    0.31886053    0.02970000
opls_146-156    H    0.40098996    0.46647016    0.45552924    0.05030000
opls_146-157    H    0.59717989    0.43305987    0.99372069    0.05030000
opls_146-158    H    0.65656011    0.39016010    0.01186036    0.05030000
opls_146-159    H    0.60250014    0.30217019    0.74763998    0.05030000
opls_146-160    H    0.54385006    0.34634014    0.74621117    0.05030000
opls_144-161    H    0.84637999    0.22991988    0.31218116    0.02970000
opls_144-162    H    0.90128014    0.96472008    0.44772919    0.05030000
opls_146-163    H    0.89939014    0.06587006    0.99281123    0.05030000
opls_146-164    H    0.83984002    0.10853014    0.98091111    0.05030000
opls_146-165    H    0.89268991    0.19677012    0.23944110    0.05030000
opls_146-166    H    0.95094996    0.15409014    0.23321895    0.05030000
opls_144-167    H    0.65650990    0.27891000    0.80820907    0.02970000
opls_146-168    H    0.59649997    0.53420005    0.54201072    0.05030000
opls_146-169    H    0.40023997    0.56754000    0.00242028    0.05030000
opls_146-170    H    0.34121008    0.61096016    0.98940942    0.05030000
opls_146-171    H    0.39518012    0.69854995    0.24948004    0.05040000
opls_146-172    H    0.45351988    0.65403995    0.24796923    0.05040000
opls_144-173    H    0.00574999    0.97500995    0.44524927    -0.14120000
opls_144-174    H    0.16235009    0.78672020    0.84062937    0.02970000
opls_144-175    H    0.09595989    0.03493989    0.53304028    0.05040000
opls_146-176    H    0.90043002    0.93248995    0.98724011    0.05030000
opls_146-177    H    0.84128014    0.88927011    0.00043982    0.05030000
opls_146-178    H    0.89500993    0.80154996    0.74099043    0.05040000
opls_146-179    H    0.95284989    0.84486001    0.74650936    0.05030000
opls_144-180    H    0.66008992    0.71692003    0.16599036    0.02970000
opls_146-181    H    0.59542009    0.46413004    0.45349909    0.05030000
opls_146-182    H    0.39960997    0.43411991    0.99392942    0.05030000
opls_146-183    H    0.33977988    0.39184004    0.01304068    0.05030000
opls_146-184    H    0.39286010    0.30375000    0.75450075    0.05030000
opls_146-185    H    0.45201991    0.34721003    0.75034105    0.05030000
opls_144-186    H    0.15122993    0.22912003    0.26676987    0.02970000
opls_144-187    H    0.09641998    0.96607991    0.44745088    0.05030000
opls_146-188    H    0.04445992    0.15463011    0.23181002    0.05030000
opls_146-189    H    0.10200998    0.19734007    0.22762050    0.05030000
opls_146-190    H    0.15566999    0.10909008    0.97835913    0.05040000
opls_146-191    H    0.09719011    0.06749011    0.99665037    0.05030000
opls_144-192    H    0.34555001    0.27133997    0.69682904    0.02970000
opls_910-193    H    0.30310007    0.33515999    0.24594902    0.29460000
opls_146-194    H    0.40207012    0.53652994    0.54439124    0.05030000
opls_146-195    H    0.59783003    0.56651995    0.00410006    0.05030000
opls_146-196    H    0.65763998    0.60878008    0.98651950    0.05030000
opls_146-197    H    0.60452998    0.69723991    0.24905015    0.05030000
opls_146-198    H    0.54538010    0.65376008    0.25027023    0.05040000
opls_144-199    H    0.99262013    0.97352995    0.44317936    -0.14130000
opls_144-200    H    0.84882992    0.76802016    0.67064083    0.02970000
opls_144-201    H    0.90081012    0.03360992    0.53258058    0.05030000
opls_146-202    H    0.49944999    0.63194995    0.70514098    0.05030000
opls_146-203    H    0.99779004    0.13161994    0.69224939    0.05030000
opls_146-204    H    0.49803001    0.36872008    0.29220019    0.05040000
opls_144-205    H    0.99955012    0.86801989    0.28900960    0.05030000
opls_144-206    H    0.99937993    0.98899008    0.47898905    -0.14130000
opls_146-207    H    0.84559993    0.27571019    0.71313983    0.05030000
opls_146-208    H    0.84123986    0.33901002    0.94893063    0.05030000
opls_146-209    H    0.77822999    0.37120019    0.01141060    0.05030000
opls_146-210    H    0.71741987    0.33924016    0.82920138    0.05030000
opls_146-211    H    0.65342997    0.22787993    0.37513077    0.05030000
opls_146-212    H    0.65739008    0.16517009    0.12991976    0.05030000
opls_146-213    H    0.72055994    0.13461988    0.03653030    0.05040000
opls_146-214    H    0.78117008    0.16611004    0.20348977    0.05030000
opls_146-215    H    0.84813014    0.72218996    0.26937900    0.05030000
opls_146-216    H    0.84394991    0.65892009    0.03272097    0.05030000
opls_146-217    H    0.78106002    0.62643003    0.97194067    0.05030000
opls_146-218    H    0.72066007    0.65728996    0.15252974    0.05030000
opls_146-219    H    0.34910989    0.77772016    0.72437896    0.05030000
opls_146-220    H    0.34570999    0.84095016    0.96261986    0.05040000
opls_146-221    H    0.28322006    0.87420000    0.02374060    0.05030000
opls_146-222    H    0.22193992    0.84341001    0.83844019    0.05030000
opls_146-223    H    0.15629999    0.73351004    0.37868912    0.05030000
opls_146-224    H    0.15928008    0.67081013    0.13180082    0.05030000
opls_146-225    H    0.22192999    0.63917000    0.04020048    0.05030000
opls_146-226    H    0.28355988    0.67034992    0.21377969    0.05040000
opls_146-227    H    0.15283996    0.27613000    0.66961954    0.05030000
opls_146-228    H    0.15870993    0.33890994    0.91058139    0.05030000
opls_146-229    H    0.22264991    0.36882015    0.98488941    0.05030000
opls_146-230    H    0.28262013    0.33542993    0.80226025    0.05030000
opls_146-231    H    0.34334005    0.22507010    0.29873047    0.05040000
opls_146-232    H    0.33743008    0.16212006    0.06042000    0.05030000
opls_146-233    H    0.27357009    0.13167001    0.99494077    0.05030000
opls_146-234    H    0.21366994    0.16491009    0.18065119    0.05030000
opls_146-235    H    0.65586004    0.76906999    0.61221123    0.05030000
opls_146-236    H    0.65963011    0.83173002    0.85841121    0.05030000
opls_146-237    H    0.72267998    0.86250995    0.95133103    0.05030000
opls_146-238    H    0.78339990    0.83132006    0.78277129    0.05030000
