#======================================================================
# Crystal Data Generated By AuToFF
#----------------------------------------------------------------------

data_AuToFF_phase_1

_cell_length_a                         23.4331
_cell_length_b                         23.4331
_cell_length_c                         21.5619
_cell_angle_alpha                      90.00
_cell_angle_beta                       90.00
_cell_angle_gamma                      90.00
_symmetry_space_group_name_H-M_alt     'P 1'
_symmetry_space_group_IT_number        1

loop_
_space_group_symop_operation_xyz
   'x, y, z'

loop_
   _atom_site_label
   _atom_site_type_symbol
   _atom_site_fract_x
   _atom_site_fract_y
   _atom_site_fract_z
   _atom_site_charge
opls_145-0    C    0.80397984    0.63008992    0.40443004    -0.06230000
opls_145-1    C    0.19566980    0.31112998    0.40412023    -0.10200000
opls_700-2    C    0.22271018    0.28007007    0.45168979    0.03520000
opls_145-3    C    0.10103017    0.72308017    0.45194023    -0.09880000
opls_145-4    C    0.86943981    0.25001984    0.49944996    -0.10200000
opls_700-5    C    0.80979000    0.24961998    0.50023977    0.03520000
opls_145-6    C    0.14407014    0.88785009    0.64443022    -0.10420000
opls_145-7    C    0.17192006    0.86160986    0.59482003    -0.07130000
opls_142-8    C    0.11422006    0.87437983    0.80870007    0.01720000
opls_145-9    C    0.13408000    0.85852021    0.69978017    0.24610000
opls_145-10    C    0.15019012    0.80147996    0.70402979    -0.10330000
opls_145-11    C    0.17788001    0.77520985    0.65451004    -0.08710000
opls_700-12    C    0.22031997    0.77762012    0.54849016    -0.00200000
opls_145-13    C    0.57917006    0.57070981    0.97045993    -0.17470000
opls_166-14    C    0.60893992    0.59762985    0.92187980    0.27830000
opls_700-15    C    0.53652995    0.53264015    0.95582996    -0.00340000
opls_700-16    C    0.59448003    0.58540995    0.85910008    -0.04050000
opls_145-17    C    0.55100008    0.54633019    0.84557993    -0.07330000
opls_700-18    C    0.52287021    0.52055981    0.89491000    0.03820000
opls_700-19    C    0.30533007    0.31062984    0.60003015    0.08810000
opls_143-20    C    0.33184982    0.35045000    0.99585983    0.12110000
opls_145-21    C    0.19602016    0.36991008    0.40443004    -0.06230000
opls_145-22    C    0.80433020    0.68887002    0.40412023    -0.10200000
opls_700-23    C    0.77728982    0.71992993    0.45168979    0.03520000
opls_145-24    C    0.89896983    0.27691983    0.45194023    -0.09880000
opls_145-25    C    0.13056019    0.74998016    0.49944996    -0.10200000
opls_700-26    C    0.19021000    0.75038002    0.50023977    0.03520000
opls_145-27    C    0.85592986    0.11214991    0.64443022    -0.10420000
opls_145-28    C    0.82807994    0.13839014    0.59482003    -0.07130000
opls_142-29    C    0.88577994    0.12562017    0.80870007    0.01720000
opls_145-30    C    0.86592000    0.14147979    0.69978017    0.24610000
opls_145-31    C    0.84980988    0.19852004    0.70402979    -0.10330000
opls_145-32    C    0.82211999    0.22479015    0.65451004    -0.08710000
opls_700-33    C    0.77968003    0.22237988    0.54849016    -0.00200000
opls_145-34    C    0.42082994    0.42929019    0.97045993    -0.17470000
opls_166-35    C    0.39106008    0.40237015    0.92187980    0.27830000
opls_700-36    C    0.46347005    0.46735985    0.95582996    -0.00340000
opls_700-37    C    0.40551997    0.41459005    0.85910008    -0.04050000
opls_145-38    C    0.44899992    0.45366981    0.84557993    -0.07330000
opls_700-39    C    0.47713021    0.47944019    0.89491000    0.03820000
opls_700-40    C    0.69466993    0.68937016    0.60003015    0.08810000
opls_143-41    C    0.66815018    0.64955000    0.99585983    0.12110000
opls_145-42    C    0.86991008    0.30397984    0.40443004    -0.06230000
opls_145-43    C    0.18887002    0.69566980    0.40412023    -0.10200000
opls_700-44    C    0.21992993    0.72271018    0.45168979    0.03520000
opls_145-45    C    0.77691983    0.60103017    0.45194023    -0.09880000
opls_145-46    C    0.24998016    0.36943981    0.49944996    -0.10200000
opls_700-47    C    0.25038002    0.30979000    0.50023977    0.03520000
opls_145-48    C    0.61214991    0.64407014    0.64443022    -0.10420000
opls_145-49    C    0.63839014    0.67192006    0.59482003    -0.07130000
opls_142-50    C    0.62562017    0.61422006    0.80870007    0.01720000
opls_145-51    C    0.64147979    0.63408000    0.69978017    0.24610000
opls_145-52    C    0.69852004    0.65019012    0.70402979    -0.10330000
opls_145-53    C    0.72479015    0.67788001    0.65451004    -0.08710000
opls_700-54    C    0.72237988    0.72031997    0.54849016    -0.00200000
opls_145-55    C    0.92929019    0.07917006    0.97045993    -0.17470000
opls_166-56    C    0.90237015    0.10893992    0.92187980    0.27830000
opls_700-57    C    0.96735985    0.03652995    0.95582996    -0.00340000
opls_700-58    C    0.91459005    0.09448003    0.85910008    -0.04050000
opls_145-59    C    0.95366981    0.05100008    0.84557993    -0.07330000
opls_700-60    C    0.97944019    0.02287021    0.89491000    0.03820000
opls_700-61    C    0.18937016    0.80533007    0.60003015    0.08810000
opls_143-62    C    0.14955000    0.83184982    0.99585983    0.12110000
opls_145-63    C    0.13008992    0.69602016    0.40443004    -0.06230000
opls_145-64    C    0.81112998    0.30433020    0.40412023    -0.10200000
opls_700-65    C    0.78007007    0.27728982    0.45168979    0.03520000
opls_145-66    C    0.22308017    0.39896983    0.45194023    -0.09880000
opls_145-67    C    0.75001984    0.63056019    0.49944996    -0.10200000
opls_700-68    C    0.74961998    0.69021000    0.50023977    0.03520000
opls_145-69    C    0.38785009    0.35592986    0.64443022    -0.10420000
opls_145-70    C    0.36160986    0.32807994    0.59482003    -0.07130000
opls_142-71    C    0.37437983    0.38577994    0.80870007    0.01720000
opls_145-72    C    0.35852021    0.36592000    0.69978017    0.24610000
opls_145-73    C    0.30147996    0.34980988    0.70402979    -0.10330000
opls_145-74    C    0.27520985    0.32211999    0.65451004    -0.08710000
opls_700-75    C    0.27762012    0.27968003    0.54849016    -0.00200000
opls_145-76    C    0.07070981    0.92082994    0.97045993    -0.17470000
opls_166-77    C    0.09762985    0.89106008    0.92187980    0.27830000
opls_700-78    C    0.03264015    0.96347005    0.95582996    -0.00340000
opls_700-79    C    0.08540995    0.90551997    0.85910008    -0.04050000
opls_145-80    C    0.04633019    0.94899992    0.84557993    -0.07330000
opls_700-81    C    0.02055981    0.97713021    0.89491000    0.03820000
opls_700-82    C    0.81062984    0.19466993    0.60003015    0.08810000
opls_143-83    C    0.85045000    0.16815018    0.99585983    0.12110000
opls_145-84    C    0.69602016    0.86991008    0.59556996    -0.06230000
opls_145-85    C    0.30433020    0.18887002    0.59587977    -0.10200000
opls_700-86    C    0.27728982    0.21992993    0.54831021    0.03520000
opls_145-87    C    0.39896983    0.77691983    0.54805977    -0.09880000
opls_145-88    C    0.63056019    0.24998016    0.50055004    -0.10200000
opls_700-89    C    0.69021000    0.25038002    0.49976023    0.03520000
opls_145-90    C    0.35592986    0.61214991    0.35556978    -0.10420000
opls_145-91    C    0.32807994    0.63839014    0.40517997    -0.07130000
opls_142-92    C    0.38577994    0.62562017    0.19129993    0.01720000
opls_145-93    C    0.36592000    0.64147979    0.30021983    0.24610000
opls_145-94    C    0.34980988    0.69852004    0.29597021    -0.10330000
opls_145-95    C    0.32211999    0.72479015    0.34548996    -0.08710000
opls_700-96    C    0.27968003    0.72237988    0.45150984    -0.00200000
opls_145-97    C    0.92082994    0.92929019    0.02954007    -0.17470000
opls_166-98    C    0.89106008    0.90237015    0.07812020    0.27830000
opls_700-99    C    0.96347005    0.96735985    0.04417004    -0.00340000
opls_700-100    C    0.90551997    0.91459005    0.14089992    -0.04050000
opls_145-101    C    0.94899992    0.95366981    0.15442007    -0.07330000
opls_700-102    C    0.97713021    0.97944019    0.10509000    0.03820000
opls_700-103    C    0.19466993    0.18937016    0.39996985    0.08810000
opls_143-104    C    0.16815018    0.14955000    0.00414017    0.12110000
opls_145-105    C    0.30397984    0.13008992    0.59556996    -0.06230000
opls_145-106    C    0.69566980    0.81112998    0.59587977    -0.10200000
opls_700-107    C    0.72271018    0.78007007    0.54831021    0.03520000
opls_145-108    C    0.60103017    0.22308017    0.54805977    -0.09880000
opls_145-109    C    0.36943981    0.75001984    0.50055004    -0.10200000
opls_700-110    C    0.30979000    0.74961998    0.49976023    0.03520000
opls_145-111    C    0.64407014    0.38785009    0.35556978    -0.10420000
opls_145-112    C    0.67192006    0.36160986    0.40517997    -0.07130000
opls_142-113    C    0.61422006    0.37437983    0.19129993    0.01720000
opls_145-114    C    0.63408000    0.35852021    0.30021983    0.24610000
opls_145-115    C    0.65019012    0.30147996    0.29597021    -0.10330000
opls_145-116    C    0.67788001    0.27520985    0.34548996    -0.08710000
opls_700-117    C    0.72031997    0.27762012    0.45150984    -0.00200000
opls_145-118    C    0.07917006    0.07070981    0.02954007    -0.17470000
opls_166-119    C    0.10893992    0.09762985    0.07812020    0.27830000
opls_700-120    C    0.03652995    0.03264015    0.04417004    -0.00340000
opls_700-121    C    0.09448003    0.08540995    0.14089992    -0.04050000
opls_145-122    C    0.05100008    0.04633019    0.15442007    -0.07330000
opls_700-123    C    0.02287021    0.02055981    0.10509000    0.03820000
opls_700-124    C    0.80533007    0.81062984    0.39996985    0.08810000
opls_143-125    C    0.83184982    0.85045000    0.00414017    0.12110000
opls_145-126    C    0.63008992    0.19602016    0.59556996    -0.06230000
opls_145-127    C    0.31112998    0.80433020    0.59587977    -0.10200000
opls_700-128    C    0.28007007    0.77728982    0.54831021    0.03520000
opls_145-129    C    0.72308017    0.89896983    0.54805977    -0.09880000
opls_145-130    C    0.25001984    0.13056019    0.50055004    -0.10200000
opls_700-131    C    0.24961998    0.19021000    0.49976023    0.03520000
opls_145-132    C    0.88785009    0.85592986    0.35556978    -0.10420000
opls_145-133    C    0.86160986    0.82807994    0.40517997    -0.07130000
opls_142-134    C    0.87437983    0.88577994    0.19129993    0.01720000
opls_145-135    C    0.85852021    0.86592000    0.30021983    0.24610000
opls_145-136    C    0.80147996    0.84980988    0.29597021    -0.10330000
opls_145-137    C    0.77520985    0.82211999    0.34548996    -0.08710000
opls_700-138    C    0.77762012    0.77968003    0.45150984    -0.00200000
opls_145-139    C    0.57070981    0.42082994    0.02954007    -0.17470000
opls_166-140    C    0.59762985    0.39106008    0.07812020    0.27820000
opls_700-141    C    0.53264015    0.46347005    0.04417004    -0.00340000
opls_700-142    C    0.58540995    0.40551997    0.14089992    -0.04060000
opls_145-143    C    0.54633019    0.44899992    0.15442007    -0.07330000
opls_700-144    C    0.52055981    0.47713021    0.10509000    0.03820000
opls_700-145    C    0.31062984    0.69466993    0.39996985    0.08810000
opls_143-146    C    0.35045000    0.66815018    0.00414017    0.12110000
opls_145-147    C    0.36991008    0.80397984    0.59556996    -0.06230000
opls_145-148    C    0.68887002    0.19566980    0.59587977    -0.10200000
opls_700-149    C    0.71992993    0.22271018    0.54831021    0.03520000
opls_145-150    C    0.27691983    0.10103017    0.54805977    -0.09880000
opls_145-151    C    0.74998016    0.86943981    0.50055004    -0.10200000
opls_700-152    C    0.75038002    0.80979000    0.49976023    0.03520000
opls_145-153    C    0.11214991    0.14407014    0.35556978    -0.10420000
opls_145-154    C    0.13839014    0.17192006    0.40517997    -0.07130000
opls_142-155    C    0.12562017    0.11422006    0.19129993    0.01720000
opls_145-156    C    0.14147979    0.13408000    0.30021983    0.24610000
opls_145-157    C    0.19852004    0.15019012    0.29597021    -0.10340000
opls_145-158    C    0.22479015    0.17788001    0.34548996    -0.08710000
opls_700-159    C    0.22237988    0.22031997    0.45150984    -0.00200000
opls_145-160    C    0.42929019    0.57917006    0.02954007    -0.17470000
opls_166-161    C    0.40237015    0.60893992    0.07812020    0.27830000
opls_700-162    C    0.46735985    0.53652995    0.04417004    -0.00340000
opls_700-163    C    0.41459005    0.59448003    0.14089992    -0.04050000
opls_145-164    C    0.45366981    0.55100008    0.15442007    -0.07330000
opls_700-165    C    0.47944019    0.52287021    0.10509000    0.03820000
opls_700-166    C    0.68937016    0.30533007    0.39996985    0.08810000
opls_143-167    C    0.64955000    0.33184982    0.00414017    0.12110000
opls_701-168    C    0.00000000    0.00000000    0.00000000    -0.00820000
opls_701-169    C    0.50000000    0.50000000    0.00000000    -0.00820000
opls_750-170    N    0.10734004    0.88755009    0.75048998    -0.26560000
opls_750-171    N    0.89265996    0.11244991    0.75048998    -0.26560000
opls_750-172    N    0.61244991    0.60734004    0.75048998    -0.26560000
opls_750-173    N    0.38755009    0.39265996    0.75048998    -0.26560000
opls_750-174    N    0.39265996    0.61244991    0.24951002    -0.26560000
opls_750-175    N    0.60734004    0.38755009    0.24951002    -0.26560000
opls_750-176    N    0.88755009    0.89265996    0.24951002    -0.26570000
opls_750-177    N    0.11244991    0.10734004    0.24951002    -0.26560000
opls_180-178    O    0.65291020    0.63671985    0.93310979    -0.16990000
opls_180-179    O    0.34708980    0.36328015    0.93310979    -0.16990000
opls_180-180    O    0.86328015    0.15291020    0.93310979    -0.16990000
opls_180-181    O    0.13671985    0.84708980    0.93310979    -0.16990000
opls_180-182    O    0.84708980    0.86328015    0.06689021    -0.16990000
opls_180-183    O    0.15291020    0.13671985    0.06689021    -0.16990000
opls_180-184    O    0.63671985    0.34708980    0.06689021    -0.16990000
opls_180-185    O    0.36328015    0.65291020    0.06689021    -0.16990000
opls_146-186    H    0.82595986    0.60545980    0.36559023    0.05200000
opls_146-187    H    0.17317982    0.28762989    0.36479995    0.05200000
opls_146-188    H    0.05238018    0.72341005    0.45228992    0.05200000
opls_146-189    H    0.89434987    0.22809018    0.53810981    0.05200000
opls_146-190    H    0.12906018    0.93396008    0.64016993    0.05200000
opls_146-191    H    0.18021004    0.88647981    0.55027989    0.05200000
opls_144-192    H    0.14343984    0.83752000    0.82221001    0.03070000
opls_146-193    H    0.14072018    0.77624983    0.74805003    0.05200000
opls_146-194    H    0.19143989    0.72860996    0.65817994    0.05200000
opls_146-195    H    0.59057018    0.58062015    0.02071988    0.05200000
opls_146-196    H    0.53962984    0.53650008    0.79528984    0.05200000
opls_185-197    H    0.28780016    0.33244983    0.00683984    0.02620000
opls_185-198    H    0.36375981    0.35823003    0.03486010    0.02620000
opls_146-199    H    0.17404014    0.39454020    0.36559023    0.05200000
opls_146-200    H    0.82682018    0.71237011    0.36479995    0.05200000
opls_146-201    H    0.94761982    0.27658995    0.45228992    0.05200000
opls_146-202    H    0.10565013    0.77190982    0.53810981    0.05200000
opls_146-203    H    0.87093982    0.06603992    0.64016993    0.05200000
opls_146-204    H    0.81978996    0.11352019    0.55027989    0.05200000
opls_144-205    H    0.85656016    0.16248000    0.82221001    0.03070000
opls_146-206    H    0.85927982    0.22375017    0.74805003    0.05200000
opls_146-207    H    0.80856011    0.27139004    0.65817994    0.05200000
opls_146-208    H    0.40942982    0.41937985    0.02071988    0.05200000
opls_146-209    H    0.46037016    0.46349992    0.79528984    0.05200000
opls_185-210    H    0.71219984    0.66755017    0.00683984    0.02620000
opls_185-211    H    0.63624019    0.64176997    0.03486010    0.02620000
opls_146-212    H    0.89454020    0.32595986    0.36559023    0.05200000
opls_146-213    H    0.21237011    0.67317982    0.36479995    0.05200000
opls_146-214    H    0.77658995    0.55238018    0.45228992    0.05200000
opls_146-215    H    0.27190982    0.39434987    0.53810981    0.05200000
opls_146-216    H    0.56603992    0.62906018    0.64016993    0.05200000
opls_146-217    H    0.61352019    0.68021004    0.55027989    0.05200000
opls_144-218    H    0.66248000    0.64343984    0.82221001    0.03070000
opls_146-219    H    0.72375017    0.64072018    0.74805003    0.05200000
opls_146-220    H    0.77139004    0.69143989    0.65817994    0.05200000
opls_146-221    H    0.91937985    0.09057018    0.02071988    0.05200000
opls_146-222    H    0.96349992    0.03962984    0.79528984    0.05200000
opls_185-223    H    0.16755017    0.78780016    0.00683984    0.02620000
opls_185-224    H    0.14176997    0.86375981    0.03486010    0.02620000
opls_146-225    H    0.10545980    0.67404014    0.36559023    0.05200000
opls_146-226    H    0.78762989    0.32682018    0.36479995    0.05200000
opls_146-227    H    0.22341005    0.44761982    0.45228992    0.05200000
opls_146-228    H    0.72809018    0.60565013    0.53810981    0.05200000
opls_146-229    H    0.43396008    0.37093982    0.64016993    0.05200000
opls_146-230    H    0.38647981    0.31978996    0.55027989    0.05200000
opls_144-231    H    0.33752000    0.35656016    0.82221001    0.03070000
opls_146-232    H    0.27624983    0.35927982    0.74805003    0.05200000
opls_146-233    H    0.22860996    0.30856011    0.65817994    0.05200000
opls_146-234    H    0.08062015    0.90942982    0.02071988    0.05200000
opls_146-235    H    0.03650008    0.96037016    0.79528984    0.05200000
opls_185-236    H    0.83244983    0.21219984    0.00683984    0.02620000
opls_185-237    H    0.85823003    0.13624019    0.03486010    0.02620000
opls_146-238    H    0.67404014    0.89454020    0.63440977    0.05200000
opls_146-239    H    0.32682018    0.21237011    0.63520005    0.05200000
opls_146-240    H    0.44761982    0.77658995    0.54771008    0.05200000
opls_146-241    H    0.60565013    0.27190982    0.46189019    0.05200000
opls_146-242    H    0.37093982    0.56603992    0.35983007    0.05200000
opls_146-243    H    0.31978996    0.61352019    0.44972011    0.05200000
opls_144-244    H    0.35656016    0.66248000    0.17778999    0.03070000
opls_146-245    H    0.35927982    0.72375017    0.25194997    0.05200000
opls_146-246    H    0.30856011    0.77139004    0.34182006    0.05200000
opls_146-247    H    0.90942982    0.91937985    0.97928012    0.05200000
opls_146-248    H    0.96037016    0.96349992    0.20471016    0.05200000
opls_185-249    H    0.21219984    0.16755017    0.99316016    0.02620000
opls_185-250    H    0.13624019    0.14176997    0.96513990    0.02620000
opls_146-251    H    0.32595986    0.10545980    0.63440977    0.05200000
opls_146-252    H    0.67317982    0.78762989    0.63520005    0.05200000
opls_146-253    H    0.55238018    0.22341005    0.54771008    0.05200000
opls_146-254    H    0.39434987    0.72809018    0.46189019    0.05200000
opls_146-255    H    0.62906018    0.43396008    0.35983007    0.05200000
opls_146-256    H    0.68021004    0.38647981    0.44972011    0.05200000
opls_144-257    H    0.64343984    0.33752000    0.17778999    0.03070000
opls_146-258    H    0.64072018    0.27624983    0.25194997    0.05200000
opls_146-259    H    0.69143989    0.22860996    0.34182006    0.05200000
opls_146-260    H    0.09057018    0.08062015    0.97928012    0.05200000
opls_146-261    H    0.03962984    0.03650008    0.20471016    0.05200000
opls_185-262    H    0.78780016    0.83244983    0.99316016    0.02620000
opls_185-263    H    0.86375981    0.85823003    0.96513990    0.02620000
opls_146-264    H    0.60545980    0.17404014    0.63440977    0.05200000
opls_146-265    H    0.28762989    0.82682018    0.63520005    0.05200000
opls_146-266    H    0.72341005    0.94761982    0.54771008    0.05200000
opls_146-267    H    0.22809018    0.10565013    0.46189019    0.05200000
opls_146-268    H    0.93396008    0.87093982    0.35983007    0.05200000
opls_146-269    H    0.88647981    0.81978996    0.44972011    0.05200000
opls_144-270    H    0.83752000    0.85656016    0.17778999    0.03070000
opls_146-271    H    0.77624983    0.85927982    0.25194997    0.05200000
opls_146-272    H    0.72860996    0.80856011    0.34182006    0.05200000
opls_146-273    H    0.58062015    0.40942982    0.97928012    0.05200000
opls_146-274    H    0.53650008    0.46037016    0.20471016    0.05200000
opls_185-275    H    0.33244983    0.71219984    0.99316016    0.02620000
opls_185-276    H    0.35823003    0.63624019    0.96513990    0.02620000
opls_146-277    H    0.39454020    0.82595986    0.63440977    0.05200000
opls_146-278    H    0.71237011    0.17317982    0.63520005    0.05200000
opls_146-279    H    0.27658995    0.05238018    0.54771008    0.05200000
opls_146-280    H    0.77190982    0.89434987    0.46189019    0.05200000
opls_146-281    H    0.06603992    0.12906018    0.35983007    0.05200000
opls_146-282    H    0.11352019    0.18021004    0.44972011    0.05200000
opls_144-283    H    0.16248000    0.14343984    0.17778999    0.03070000
opls_146-284    H    0.22375017    0.14072018    0.25194997    0.05200000
opls_146-285    H    0.27139004    0.19143989    0.34182006    0.05200000
opls_146-286    H    0.41937985    0.59057018    0.97928012    0.05200000
opls_146-287    H    0.46349992    0.53962984    0.20471016    0.05200000
opls_185-288    H    0.66755017    0.28780016    0.99316016    0.02620000
opls_185-289    H    0.64176997    0.36375981    0.96513990    0.02620000
