#======================================================================
# Crystal Data Generated By AuToFF
#----------------------------------------------------------------------

data_AuToFF_phase_1

_cell_length_a                         33.3000
_cell_length_b                         34.3000
_cell_length_c                         3.8800
_cell_angle_alpha                      90.00
_cell_angle_beta                       76.00
_cell_angle_gamma                      90.00
_symmetry_space_group_name_H-M_alt     'P 1'
_symmetry_space_group_IT_number        1

loop_
_space_group_symop_operation_xyz
   'x, y, z'

loop_
   _atom_site_label
   _atom_site_type_symbol
   _atom_site_fract_x
   _atom_site_fract_y
   _atom_site_fract_z
   _atom_site_charge
opls_700-0    C    0.54039009    0.53587988    0.07123979    0.01180000
opls_145-1    C    0.48063984    0.57070991    0.96307856    -0.22930000
opls_700-2    C    0.41905978    0.53577988    0.87072980    0.02380000
opls_700-3    C    0.39311985    0.56867988    0.89061956    0.07350000
opls_145-4    C    0.35310989    0.56797988    0.12439073    -0.20400000
opls_145-5    C    0.32631991    0.59990991    0.14858092    -0.23830000
opls_145-6    C    0.33974009    0.63332012    0.94267880    0.17340000
opls_145-7    C    0.37918006    0.63466997    0.71152932    -0.23820000
opls_145-8    C    0.40533993    0.60242012    0.68438010    -0.22920000
opls_700-9    C    0.23485986    0.78713003    0.93599044    0.04720000
opls_145-10    C    0.20884001    0.75963003    0.15622020    -0.22930000
opls_145-11    C    0.22376988    0.72289009    0.22037054    -0.23100000
opls_142-12    C    0.22043999    0.82403994    0.87105917    0.09100000
opls_700-13    C    0.04039009    0.03587988    0.07123979    0.01180000
opls_145-14    C    0.98063984    0.07070991    0.96307856    -0.22920000
opls_700-15    C    0.91905978    0.03577988    0.87072980    0.02380000
opls_700-16    C    0.89311985    0.06867988    0.89061956    0.07350000
opls_145-17    C    0.85310989    0.06797988    0.12439073    -0.20400000
opls_145-18    C    0.82631991    0.09990991    0.14858092    -0.23830000
opls_145-19    C    0.83974009    0.13332012    0.94267880    0.17340000
opls_145-20    C    0.87918006    0.13466997    0.71152932    -0.23820000
opls_145-21    C    0.90533993    0.10242012    0.68438010    -0.22930000
opls_700-22    C    0.73485986    0.28713003    0.93599044    0.04720000
opls_145-23    C    0.70884001    0.25963003    0.15622020    -0.22930000
opls_145-24    C    0.72376988    0.22289009    0.22037054    -0.23050000
opls_142-25    C    0.72043999    0.32403994    0.87105917    0.09100000
opls_700-26    C    0.45960991    0.53587988    0.92876021    0.01180000
opls_145-27    C    0.51935993    0.57070991    0.03691879    -0.22930000
opls_700-28    C    0.58093992    0.53577988    0.12927020    0.02380000
opls_700-29    C    0.60687985    0.56867988    0.10939106    0.07350000
opls_145-30    C    0.64688981    0.56797988    0.87560927    -0.20390000
opls_145-31    C    0.67368009    0.59990991    0.85141908    -0.23840000
opls_145-32    C    0.66025991    0.63332012    0.05732120    0.17340000
opls_145-33    C    0.62081994    0.63466997    0.28847068    -0.23820000
opls_145-34    C    0.59466007    0.60242012    0.31563052    -0.22930000
opls_700-35    C    0.76515005    0.78713003    0.06400956    0.04720000
opls_145-36    C    0.79115999    0.75963003    0.84379042    -0.22930000
opls_145-37    C    0.77622982    0.72289009    0.77962946    -0.23100000
opls_142-38    C    0.77956001    0.82403994    0.12894083    0.09100000
opls_700-39    C    0.95960991    0.03587988    0.92876021    0.01180000
opls_145-40    C    0.01935993    0.07070991    0.03691879    -0.22930000
opls_700-41    C    0.08093992    0.03577988    0.12927020    0.02380000
opls_700-42    C    0.10687985    0.06867988    0.10939106    0.07350000
opls_145-43    C    0.14688981    0.06797988    0.87560927    -0.20400000
opls_145-44    C    0.17368009    0.09990991    0.85141908    -0.23840000
opls_145-45    C    0.16025991    0.13332012    0.05732120    0.17340000
opls_145-46    C    0.12081994    0.13466997    0.28847068    -0.23820000
opls_145-47    C    0.09466007    0.10242012    0.31563052    -0.22930000
opls_700-48    C    0.26514014    0.28713003    0.06400956    0.04720000
opls_145-49    C    0.29115999    0.25963003    0.84379042    -0.22930000
opls_145-50    C    0.27622982    0.22289009    0.77962946    -0.23100000
opls_142-51    C    0.27956001    0.32403994    0.12894083    0.09100000
opls_700-52    C    0.45960991    0.46412012    0.92876021    0.01180000
opls_145-53    C    0.51935993    0.42929009    0.03691879    -0.22930000
opls_700-54    C    0.58093992    0.46422012    0.12927020    0.02380000
opls_700-55    C    0.60687985    0.43132012    0.10939106    0.07360000
opls_145-56    C    0.64688981    0.43202012    0.87560927    -0.20400000
opls_145-57    C    0.67368009    0.40009009    0.85141908    -0.23840000
opls_145-58    C    0.66025991    0.36667988    0.05732120    0.17340000
opls_145-59    C    0.62081994    0.36533003    0.28847068    -0.23820000
opls_145-60    C    0.59466007    0.39757988    0.31563052    -0.22930000
opls_700-61    C    0.76515005    0.21286997    0.06400956    0.04720000
opls_145-62    C    0.79115999    0.24036997    0.84379042    -0.22930000
opls_145-63    C    0.77622982    0.27710991    0.77962946    -0.23100000
opls_142-64    C    0.77956001    0.17596997    0.12894083    0.09100000
opls_700-65    C    0.95960991    0.96412012    0.92876021    0.01180000
opls_145-66    C    0.01935993    0.92929009    0.03691879    -0.22930000
opls_700-67    C    0.08093992    0.96422012    0.12927020    0.02380000
opls_700-68    C    0.10687985    0.93132012    0.10939106    0.07350000
opls_145-69    C    0.14688981    0.93202012    0.87560927    -0.20400000
opls_145-70    C    0.17368009    0.90009009    0.85141908    -0.23840000
opls_145-71    C    0.16025991    0.86667988    0.05732120    0.17340000
opls_145-72    C    0.12081994    0.86533003    0.28847068    -0.23820000
opls_145-73    C    0.09466007    0.89757988    0.31563052    -0.22930000
opls_700-74    C    0.26514014    0.71286997    0.06400956    0.04720000
opls_145-75    C    0.29115999    0.74036997    0.84379042    -0.22930000
opls_145-76    C    0.27622982    0.77710991    0.77962946    -0.23100000
opls_142-77    C    0.27956001    0.67596997    0.12894083    0.09100000
opls_700-78    C    0.54039009    0.46412012    0.07123979    0.01180000
opls_145-79    C    0.48063984    0.42929009    0.96307856    -0.22920000
opls_700-80    C    0.41905978    0.46422012    0.87072980    0.02380000
opls_700-81    C    0.39311985    0.43132012    0.89061956    0.07350000
opls_145-82    C    0.35310989    0.43202012    0.12439073    -0.20400000
opls_145-83    C    0.32631991    0.40009009    0.14858092    -0.23840000
opls_145-84    C    0.33974009    0.36667988    0.94267880    0.17340000
opls_145-85    C    0.37918006    0.36533003    0.71152932    -0.23810000
opls_145-86    C    0.40533993    0.39757988    0.68438010    -0.22910000
opls_700-87    C    0.23485986    0.21286997    0.93599044    0.04720000
opls_145-88    C    0.20884001    0.24036997    0.15622020    -0.22930000
opls_145-89    C    0.22376988    0.27710991    0.22037054    -0.23090000
opls_142-90    C    0.22043999    0.17596997    0.87105917    0.09100000
opls_700-91    C    0.04039009    0.96412012    0.07123979    0.01180000
opls_145-92    C    0.98063984    0.92929009    0.96307856    -0.22930000
opls_700-93    C    0.91905978    0.96422012    0.87072980    0.02380000
opls_700-94    C    0.89311985    0.93132012    0.89061956    0.07350000
opls_145-95    C    0.85310989    0.93202012    0.12439073    -0.20390000
opls_145-96    C    0.82631991    0.90009009    0.14858092    -0.23840000
opls_145-97    C    0.83974009    0.86667988    0.94267880    0.17340000
opls_145-98    C    0.87918006    0.86533003    0.71152932    -0.23820000
opls_145-99    C    0.90533993    0.89757988    0.68438010    -0.22930000
opls_700-100    C    0.73485986    0.71286997    0.93599044    0.04720000
opls_145-101    C    0.70884001    0.74036997    0.15622020    -0.22930000
opls_145-102    C    0.72376988    0.77710991    0.22037054    -0.23060000
opls_142-103    C    0.72043999    0.67596997    0.87105917    0.09100000
opls_145-104    C    0.40118986    0.50000000    0.81501029    -0.15220000
opls_700-105    C    0.52006987    0.50000000    0.03726941    -0.00320000
opls_145-106    C    0.90118986    0.00000000    0.81501029    -0.15220000
opls_700-107    C    0.02006987    0.00000000    0.03726941    -0.00320000
opls_145-108    C    0.59881014    0.50000000    0.18498971    -0.15210000
opls_700-109    C    0.47992983    0.50000000    0.96273059    -0.00320000
opls_145-110    C    0.09881014    0.00000000    0.18498971    -0.15210000
opls_700-111    C    0.97992983    0.00000000    0.96273059    -0.00320000
opls_146-112    H    0.46840000    0.59734985    0.93868916    0.19560000
opls_146-113    H    0.34319987    0.54424985    0.28210904    0.19530000
opls_146-114    H    0.29765009    0.59876006    0.31768909    0.19550000
opls_146-115    H    0.38882992    0.65893003    0.56039843    0.19540000
opls_146-116    H    0.43347004    0.60413003    0.51322930    0.19500000
opls_146-117    H    0.17864009    0.76610000    0.27393851    0.19530000
opls_146-118    H    0.20423994    0.70375015    0.38181021    0.19540000
opls_144-119    H    0.76163988    0.15750991    0.30985856    0.09520000
opls_146-120    H    0.96840000    0.09734985    0.93868916    0.19560000
opls_146-121    H    0.84319987    0.04425015    0.28210904    0.19530000
opls_146-122    H    0.79765009    0.09876006    0.31768909    0.19540000
opls_146-123    H    0.88882992    0.15893003    0.56039843    0.19530000
opls_146-124    H    0.93345983    0.10413003    0.51322930    0.19480000
opls_146-125    H    0.67864009    0.26610000    0.27393851    0.19530000
opls_146-126    H    0.70423994    0.20374985    0.38181021    0.19530000
opls_144-127    H    0.26163988    0.65750991    0.30985856    0.09520000
opls_146-128    H    0.53160007    0.59734985    0.06131881    0.19550000
opls_146-129    H    0.65679991    0.54424985    0.71788831    0.19530000
opls_146-130    H    0.70234999    0.59876006    0.68231888    0.19550000
opls_146-131    H    0.61116985    0.65893003    0.43959891    0.19540000
opls_146-132    H    0.56653987    0.60413003    0.48677070    0.19470000
opls_146-133    H    0.82135999    0.76610000    0.72605884    0.19530000
opls_146-134    H    0.79576006    0.70375015    0.61818979    0.19530000
opls_144-135    H    0.23835989    0.15750991    0.69013879    0.09520000
opls_146-136    H    0.03160007    0.09734985    0.06131881    0.19550000
opls_146-137    H    0.15679991    0.04425015    0.71788831    0.19530000
opls_146-138    H    0.20234999    0.09876006    0.68231888    0.19540000
opls_146-139    H    0.11116985    0.15893003    0.43959891    0.19530000
opls_146-140    H    0.06653987    0.10413003    0.48677070    0.19470000
opls_146-141    H    0.32135999    0.26610000    0.72605884    0.19530000
opls_146-142    H    0.29576006    0.20374985    0.61818979    0.19530000
opls_144-143    H    0.73835989    0.65750991    0.69013879    0.09520000
opls_146-144    H    0.53160007    0.40265015    0.06131881    0.19560000
opls_146-145    H    0.65679991    0.45575015    0.71788831    0.19530000
opls_146-146    H    0.70234999    0.40123994    0.68231888    0.19540000
opls_146-147    H    0.61116985    0.34106997    0.43959891    0.19530000
opls_146-148    H    0.56653987    0.39586997    0.48677070    0.19470000
opls_146-149    H    0.82135999    0.23390000    0.72605884    0.19530000
opls_146-150    H    0.79576006    0.29624985    0.61818979    0.19530000
opls_144-151    H    0.23835989    0.84249009    0.69013879    0.09520000
opls_146-152    H    0.03160007    0.90265015    0.06131881    0.19550000
opls_146-153    H    0.15679991    0.95574985    0.71788831    0.19530000
opls_146-154    H    0.20234999    0.90123994    0.68231888    0.19560000
opls_146-155    H    0.11116985    0.84106997    0.43959891    0.19540000
opls_146-156    H    0.06653987    0.89586997    0.48677070    0.19470000
opls_146-157    H    0.32135999    0.73390000    0.72605884    0.19540000
opls_146-158    H    0.29576006    0.79625015    0.61818979    0.19540000
opls_144-159    H    0.73835989    0.34249009    0.69013879    0.09520000
opls_146-160    H    0.46840000    0.40265015    0.93868916    0.19560000
opls_146-161    H    0.34319987    0.45575015    0.28210904    0.19530000
opls_146-162    H    0.29765009    0.40123994    0.31768909    0.19540000
opls_146-163    H    0.38882992    0.34106997    0.56039843    0.19530000
opls_146-164    H    0.43347004    0.39586997    0.51322930    0.19510000
opls_146-165    H    0.17864009    0.23390000    0.27393851    0.19530000
opls_146-166    H    0.20423994    0.29624985    0.38181021    0.19530000
opls_144-167    H    0.76163988    0.84249009    0.30985856    0.09520000
opls_146-168    H    0.96840000    0.90265015    0.93868916    0.19560000
opls_146-169    H    0.84319987    0.95574985    0.28210904    0.19530000
opls_146-170    H    0.79765009    0.90123994    0.31768909    0.19550000
opls_146-171    H    0.88882992    0.84106997    0.56039843    0.19530000
opls_146-172    H    0.93345983    0.89586997    0.51322930    0.19470000
opls_146-173    H    0.67864009    0.73390000    0.27393851    0.19530000
opls_146-174    H    0.70423994    0.79625015    0.38181021    0.19540000
opls_144-175    H    0.26163988    0.34249009    0.30985856    0.09520000
opls_146-176    H    0.37328004    0.50000000    0.74593001    0.19530000
opls_146-177    H    0.87328004    0.00000000    0.74593001    0.19530000
opls_146-178    H    0.62671996    0.50000000    0.25406999    0.19530000
opls_146-179    H    0.12671996    0.00000000    0.25406999    0.19530000
opls_750-180    N    0.18249993    0.83433003    0.05540076    -0.28110000
opls_750-181    N    0.68249993    0.33433003    0.05540076    -0.28120000
opls_750-182    N    0.81750007    0.83433003    0.94459924    -0.28110000
opls_750-183    N    0.31750007    0.33433003    0.94459924    -0.28120000
opls_750-184    N    0.81750007    0.16566997    0.94459924    -0.32630000
opls_750-185    N    0.31750007    0.66566997    0.94459924    -0.32630000
opls_750-186    N    0.18249993    0.16566997    0.05540076    -0.32640000
opls_750-187    N    0.68249993    0.66566997    0.05540076    -0.32640000
