#======================================================================
# Crystal Data Generated By AuToFF
#----------------------------------------------------------------------

data_AuToFF_phase_1

_cell_length_a                         21.2268
_cell_length_b                         21.2268
_cell_length_c                         6.5521
_cell_angle_alpha                      90.00
_cell_angle_beta                       90.00
_cell_angle_gamma                      120.00
_symmetry_space_group_name_H-M_alt     'P 1'
_symmetry_space_group_IT_number        1

loop_
_space_group_symop_operation_xyz
   'x, y, z'

loop_
   _atom_site_label
   _atom_site_type_symbol
   _atom_site_fract_x
   _atom_site_fract_y
   _atom_site_fract_z
   _atom_site_charge
opls_145-0    C    0.63537979    0.25731996    0.25000076    -0.16340000
opls_700-1    C    0.71148985    0.30197982    0.25000076    0.01360000
opls_567-2    C    0.75713991    0.26893997    0.25000076    0.16880000
opls_567-3    C    0.77344995    0.17352003    0.25000076    0.23960000
opls_700-4    C    0.84396993    0.23598008    0.25000076    -0.00310000
opls_700-5    C    0.83194981    0.29711989    0.25000076    -0.10120000
opls_145-6    C    0.75897997    0.10225997    0.25000076    -0.21010000
opls_423-7    C    0.88756008    0.37078978    0.25000076    0.17500000
opls_145-8    C    0.03075003    0.07583005    0.25000076    -0.17080000
opls_700-9    C    0.95481983    0.03081007    0.25000076    0.01760000
opls_567-10    C    0.90901991    0.06342018    0.25000076    0.32200000
opls_567-11    C    0.89193999    0.15834999    0.25000076    0.23790000
opls_700-12    C    0.82157996    0.09581977    0.25000076    -0.00650000
opls_700-13    C    0.83409997    0.03499003    0.25000076    -0.08800000
opls_145-14    C    0.90642994    0.22950016    0.25000076    -0.18370000
opls_423-15    C    0.77970003    0.96098015    0.25000076    0.17260000
opls_145-16    C    0.74268016    0.37806010    0.25000076    -0.16340000
opls_700-17    C    0.69802007    0.40950990    0.25000076    0.01360000
opls_567-18    C    0.73105998    0.48820021    0.25000076    0.16880000
opls_567-19    C    0.82647998    0.59992983    0.25000076    0.23960000
opls_700-20    C    0.76402007    0.60799001    0.25000076    -0.00310000
opls_700-21    C    0.70287999    0.53482983    0.25000076    -0.10120000
opls_145-22    C    0.89774019    0.65671995    0.25000076    -0.21010000
opls_423-23    C    0.62921017    0.51677016    0.25000076    0.17500000
opls_145-24    C    0.92416964    0.95491964    0.25000076    -0.17080000
opls_700-25    C    0.96918980    0.92401002    0.25000076    0.01760000
opls_567-26    C    0.93658015    0.84559986    0.25000076    0.32200000
opls_567-27    C    0.84164995    0.73359009    0.25000076    0.23790000
opls_700-28    C    0.90418015    0.72576001    0.25000076    -0.00650000
opls_700-29    C    0.96501001    0.79911004    0.25000076    -0.08800000
opls_145-30    C    0.77049997    0.67692998    0.25000076    -0.18370000
opls_423-31    C    0.03902018    0.81872006    0.25000076    0.17260000
opls_145-32    C    0.62194006    0.36461993    0.25000076    -0.16340000
opls_700-33    C    0.59048981    0.28850973    0.25000076    0.01360000
opls_567-34    C    0.51180010    0.24285982    0.25000076    0.16880000
opls_567-35    C    0.40007007    0.22655015    0.25000076    0.23960000
opls_700-36    C    0.39201000    0.15602991    0.25000076    -0.00310000
opls_700-37    C    0.46516993    0.16804974    0.25000076    -0.10120000
opls_145-38    C    0.34327984    0.24102008    0.25000076    -0.21010000
opls_423-39    C    0.48323022    0.11244006    0.25000076    0.17500000
opls_145-40    C    0.04508006    0.96924977    0.25000076    -0.17080000
opls_700-41    C    0.07598990    0.04517991    0.25000076    0.01760000
opls_567-42    C    0.15439994    0.09097996    0.25000076    0.32200000
opls_567-43    C    0.26641006    0.10805991    0.25000076    0.23790000
opls_700-44    C    0.27423988    0.17842022    0.25000076    -0.00650000
opls_700-45    C    0.20089002    0.16589992    0.25000076    -0.08800000
opls_145-46    C    0.32307010    0.09356986    0.25000076    -0.18370000
opls_423-47    C    0.18127979    0.22029979    0.25000076    0.17260000
opls_145-48    C    0.36462021    0.74268004    0.75000076    -0.16340000
opls_700-49    C    0.28851015    0.69802018    0.75000076    0.01360000
opls_567-50    C    0.24286009    0.73106003    0.75000076    0.16880000
opls_567-51    C    0.22655005    0.82647997    0.75000076    0.23960000
opls_700-52    C    0.15603007    0.76401992    0.75000076    -0.00310000
opls_700-53    C    0.16805019    0.70288011    0.75000076    -0.10120000
opls_145-54    C    0.24102003    0.89774003    0.75000076    -0.21010000
opls_423-55    C    0.11243965    0.62920968    0.75000076    0.17500000
opls_145-56    C    0.96924997    0.92416995    0.75000076    -0.17080000
opls_700-57    C    0.04518017    0.96918993    0.75000076    0.01760000
opls_567-58    C    0.09098009    0.93657982    0.75000076    0.32200000
opls_567-59    C    0.10806001    0.84165001    0.75000076    0.23790000
opls_700-60    C    0.17841977    0.90417969    0.75000076    -0.00650000
opls_700-61    C    0.16590003    0.96500997    0.75000076    -0.08800000
opls_145-62    C    0.09357006    0.77049984    0.75000076    -0.18370000
opls_423-63    C    0.22029997    0.03901985    0.75000076    0.17260000
opls_145-64    C    0.25731984    0.62193990    0.75000076    -0.16330000
opls_700-65    C    0.30197993    0.59049010    0.75000076    0.01360000
opls_567-66    C    0.26894002    0.51179979    0.75000076    0.16880000
opls_567-67    C    0.17352002    0.40007017    0.75000076    0.23960000
opls_700-68    C    0.23597993    0.39200999    0.75000076    -0.00310000
opls_700-69    C    0.29712001    0.46517017    0.75000076    -0.10120000
opls_145-70    C    0.10225981    0.34328005    0.75000076    -0.21010000
opls_423-71    C    0.37078983    0.48322984    0.75000076    0.17500000
opls_145-72    C    0.07583009    0.04507982    0.75000076    -0.17080000
opls_700-73    C    0.03081020    0.07598998    0.75000076    0.01760000
opls_567-74    C    0.06341985    0.15440014    0.75000076    0.32200000
opls_567-75    C    0.15835005    0.26640991    0.75000076    0.23790000
opls_700-76    C    0.09581985    0.27423999    0.75000076    -0.00650000
opls_700-77    C    0.03498999    0.20088996    0.75000076    -0.08800000
opls_145-78    C    0.22950003    0.32307002    0.75000076    -0.18370000
opls_423-79    C    0.96097982    0.18127994    0.75000076    0.17260000
opls_145-80    C    0.37805994    0.63538007    0.75000076    -0.16340000
opls_700-81    C    0.40950991    0.71148972    0.75000076    0.01360000
opls_567-82    C    0.48819990    0.75714018    0.75000076    0.16880000
opls_567-83    C    0.59992993    0.77344985    0.75000076    0.23980000
opls_700-84    C    0.60799000    0.84397009    0.75000076    -0.00310000
opls_700-85    C    0.53482980    0.83194971    0.75000076    -0.10120000
opls_145-86    C    0.65672016    0.75897992    0.75000076    -0.21010000
opls_423-87    C    0.51676978    0.88755994    0.75000076    0.17500000
opls_145-88    C    0.95491994    0.03075023    0.75000076    -0.17080000
opls_700-89    C    0.92401010    0.95482009    0.75000076    0.01760000
opls_567-90    C    0.84560006    0.90902004    0.75000076    0.32200000
opls_567-91    C    0.73358994    0.89194009    0.75000076    0.23800000
opls_700-92    C    0.72576012    0.82157978    0.75000076    -0.00650000
opls_700-93    C    0.79910998    0.83410008    0.75000076    -0.08800000
opls_145-94    C    0.67692990    0.90643014    0.75000076    -0.18370000
opls_423-95    C    0.81871994    0.77969967    0.75000076    0.17260000
opls_566-96    O    0.72162999    0.19428982    0.25000076    -0.12100000
opls_566-97    O    0.94409978    0.13798003    0.25000076    -0.12110000
opls_566-98    O    0.80570965    0.52733974    0.25000076    -0.12100000
opls_566-99    O    0.86201980    0.80611980    0.25000076    -0.12100000
opls_566-100    O    0.47266009    0.27836990    0.25000076    -0.12100000
opls_566-101    O    0.19387995    0.05590017    0.25000076    -0.12110000
opls_566-102    O    0.27837001    0.80571018    0.75000076    -0.12100000
opls_566-103    O    0.05590022    0.86201997    0.75000076    -0.12110000
opls_566-104    O    0.19429008    0.47265972    0.75000076    -0.12100000
opls_566-105    O    0.13798020    0.19388020    0.75000076    -0.12110000
opls_566-106    O    0.52733991    0.72163010    0.75000076    -0.12100000
opls_566-107    O    0.80612005    0.94409983    0.75000076    -0.12110000
opls_753-108    N    0.93499990    0.43091996    0.25000076    -0.28050000
opls_753-109    N    0.73388997    0.90009003    0.25000076    -0.35820000
opls_753-110    N    0.56907985    0.50408014    0.25000076    -0.28050000
opls_753-111    N    0.09991006    0.83379980    0.25000076    -0.35830000
opls_753-112    N    0.49591978    0.06499990    0.25000076    -0.28050000
opls_753-113    N    0.16619998    0.26611017    0.25000076    -0.35830000
opls_753-114    N    0.06500010    0.56908004    0.75000076    -0.28050000
opls_753-115    N    0.26611003    0.09990997    0.75000076    -0.35830000
opls_753-116    N    0.43092015    0.49591986    0.75000076    -0.28050000
opls_753-117    N    0.90008994    0.16620020    0.75000076    -0.35830000
opls_753-118    N    0.50408022    0.93500010    0.75000076    -0.28050000
opls_753-119    N    0.83380002    0.73388983    0.75000076    -0.35830000
opls_146-120    H    0.61180008    0.19854974    0.25000076    0.11570000
opls_146-121    H    0.70393988    0.05577016    0.25000076    0.11250000
opls_146-122    H    0.05381012    0.13447026    0.25000076    0.11890000
opls_146-123    H    0.96135997    0.27612978    0.25000076    0.11340000
opls_146-124    H    0.80144983    0.41324978    0.25000076    0.11570000
opls_146-125    H    0.94422991    0.64817018    0.25000076    0.11250000
opls_146-126    H    0.86553001    0.91933993    0.25000076    0.11890000
opls_146-127    H    0.72386986    0.68523006    0.25000076    0.11340000
opls_146-128    H    0.58674983    0.38819994    0.25000076    0.11570000
opls_146-129    H    0.35183002    0.29606021    0.25000076    0.11250000
opls_146-130    H    0.08065987    0.94618981    0.25000076    0.11890000
opls_146-131    H    0.31477017    0.03864015    0.25000076    0.11340000
opls_146-132    H    0.38819965    0.80144971    0.75000076    0.11570000
opls_146-133    H    0.29606012    0.94422984    0.75000076    0.11250000
opls_146-134    H    0.94618988    0.86552974    0.75000076    0.11890000
opls_146-135    H    0.03863976    0.72386967    0.75000076    0.11340000
opls_146-136    H    0.19854990    0.58674968    0.75000076    0.11570000
opls_146-137    H    0.05577009    0.35182982    0.75000076    0.11250000
opls_146-138    H    0.13446999    0.08066007    0.75000076    0.11890000
opls_146-139    H    0.27613014    0.31476994    0.75000076    0.11340000
opls_146-140    H    0.41325017    0.61180006    0.75000076    0.11570000
opls_146-141    H    0.64816998    0.70393979    0.75000076    0.11250000
opls_146-142    H    0.91934013    0.05381019    0.75000076    0.11890000
opls_146-143    H    0.68522983    0.96135985    0.75000076    0.11340000
