#======================================================================
# Crystal Data Generated By AuToFF
#----------------------------------------------------------------------

data_AuToFF_phase_1

_cell_length_a                         25.4016
_cell_length_b                         25.4016
_cell_length_c                         3.5076
_cell_angle_alpha                      90.00
_cell_angle_beta                       90.00
_cell_angle_gamma                      120.00
_symmetry_space_group_name_H-M_alt     'P 1'
_symmetry_space_group_IT_number        1

loop_
_space_group_symop_operation_xyz
   'x, y, z'

loop_
   _atom_site_label
   _atom_site_type_symbol
   _atom_site_fract_x
   _atom_site_fract_y
   _atom_site_fract_z
   _atom_site_charge
opls_750-0    N    0.15566997    0.83994994    0.50892918    -0.30380000
opls_520-1    N    0.27385000    0.64359002    0.46692895    -0.45490000
opls_520-2    N    0.97006997    0.94002027    0.52919945    -0.46050000
opls_750-3    N    0.16004992    0.31571980    0.50892918    -0.30380000
opls_520-4    N    0.35641007    0.63025998    0.46692895    -0.45490000
opls_520-5    N    0.05997998    0.03004987    0.52919945    -0.46050000
opls_750-6    N    0.68428011    0.84433025    0.50892918    -0.30380000
opls_520-7    N    0.36973994    0.72615000    0.46692895    -0.45490000
opls_520-8    N    0.96995005    0.02992986    0.52919945    -0.46050000
opls_700-9    C    0.06332007    0.93693004    0.52704983    0.03320000
opls_523-10    C    0.03290996    0.87462014    0.49761090    -0.21310000
opls_145-11    C    0.06422016    0.84381022    0.49265025    -0.22050000
opls_145-12    C    0.12618988    0.87422011    0.51491903    0.19170000
opls_145-13    C    0.15684994    0.93650001    0.55035067    -0.22020000
opls_523-14    C    0.12567013    0.96746995    0.55462995    -0.21320000
opls_142-15    C    0.21218012    0.86018002    0.45979872    0.10130000
opls_700-16    C    0.23650994    0.81960985    0.46319991    0.05490000
opls_145-17    C    0.19937002    0.75803000    0.50679097    -0.21320000
opls_523-18    C    0.22319010    0.72027004    0.50746949    -0.21310000
opls_700-19    C    0.28471994    0.74336987    0.46627038    0.03320000
opls_523-20    C    0.32177998    0.80510018    0.42393945    -0.21310000
opls_145-21    C    0.29786990    0.84278014    0.42167864    -0.21320000
opls_531-22    C    0.31009004    0.70334019    0.46694891    0.33970000
opls_531-23    C    0.93958011    0.96973011    0.52929068    0.33960000
opls_700-24    C    0.06306978    0.12638993    0.52704983    0.03320000
opls_523-25    C    0.12537985    0.15828993    0.49761090    -0.21310000
opls_145-26    C    0.15618981    0.22040982    0.49265025    -0.22040000
opls_145-27    C    0.12577979    0.25196980    0.51491903    0.19170000
opls_145-28    C    0.06349990    0.22034982    0.55035067    -0.22020000
opls_523-29    C    0.03253006    0.15819993    0.55462995    -0.21310000
opls_142-30    C    0.13982006    0.35200012    0.45979872    0.10130000
opls_700-31    C    0.18039006    0.41690021    0.46319991    0.05500000
opls_145-32    C    0.24196991    0.44134013    0.50679097    -0.21320000
opls_523-33    C    0.27972986    0.50291998    0.50746949    -0.21310000
opls_700-34    C    0.25662982    0.54135000    0.46627038    0.03320000
opls_523-35    C    0.19489993    0.51668005    0.42393945    -0.21310000
opls_145-36    C    0.15722000    0.45509020    0.42167864    -0.21320000
opls_531-37    C    0.29666013    0.60675012    0.46694891    0.33970000
opls_531-38    C    0.03027024    0.96985012    0.52929068    0.33960000
opls_700-39    C    0.87361015    0.93668003    0.52704983    0.03320000
opls_523-40    C    0.84170980    0.96708992    0.49761090    -0.21310000
opls_145-41    C    0.77959003    0.93577996    0.49265025    -0.22030000
opls_145-42    C    0.74802993    0.87381009    0.51491903    0.19170000
opls_145-43    C    0.77965017    0.84315017    0.55035067    -0.22020000
opls_523-44    C    0.84180020    0.87433012    0.55462995    -0.21320000
opls_142-45    C    0.64799983    0.78781986    0.45979872    0.10130000
opls_700-46    C    0.58310000    0.76348994    0.46319991    0.05490000
opls_145-47    C    0.55866008    0.80062986    0.50679097    -0.21310000
opls_523-48    C    0.49708003    0.77680998    0.50746949    -0.21310000
opls_700-49    C    0.45865024    0.71528014    0.46627038    0.03320000
opls_523-50    C    0.48331992    0.67822022    0.42393945    -0.21310000
opls_145-51    C    0.54490993    0.70213011    0.42167864    -0.21310000
opls_531-52    C    0.39325006    0.68991014    0.46694891    0.33970000
opls_531-53    C    0.03015027    0.06042022    0.52929068    0.33960000
opls_526-54    H    0.98492994    0.84982019    0.47641977    0.21690000
opls_146-55    H    0.04036992    0.79591998    0.46843141    0.21710000
opls_146-56    H    0.20450019    0.96148998    0.58096989    0.21730000
opls_526-57    H    0.15025001    0.01538019    0.58248090    0.21800000
opls_144-58    H    0.24243007    0.90682017    0.40815943    0.10620000
opls_146-59    H    0.15191019    0.73930003    0.54042935    0.21690000
opls_526-60    H    0.19358987    0.67297984    0.54245923    0.21690000
opls_526-61    H    0.36927999    0.82413018    0.38993044    0.21800000
opls_146-62    H    0.32729976    0.89010989    0.38685996    0.21690000
opls_526-63    H    0.15018016    0.13511010    0.47641977    0.21700000
opls_146-64    H    0.20408017    0.24445017    0.46843141    0.21710000
opls_146-65    H    0.03850987    0.24301007    0.58096989    0.21720000
opls_526-66    H    0.98462018    0.13487008    0.58248090    0.21800000
opls_144-67    H    0.09318010    0.33560986    0.40815943    0.10620000
opls_146-68    H    0.26069995    0.41260990    0.54042935    0.21690000
opls_526-69    H    0.32702003    0.52060988    0.54245923    0.21690000
opls_526-70    H    0.17586997    0.54514981    0.38993044    0.21800000
opls_146-71    H    0.10988995    0.43718984    0.38685996    0.21810000
opls_526-72    H    0.86489013    0.01507017    0.47641977    0.21690000
opls_146-73    H    0.75554992    0.95962985    0.46843141    0.21710000
opls_146-74    H    0.75698994    0.79549995    0.58096989    0.21720000
opls_526-75    H    0.86513004    0.84975019    0.58248090    0.21800000
opls_144-76    H    0.66438983    0.75756997    0.40815943    0.10620000
opls_146-77    H    0.58738986    0.84809007    0.54042935    0.21690000
opls_526-78    H    0.47938988    0.80640982    0.54245923    0.21700000
opls_526-79    H    0.45485004    0.63072001    0.38993044    0.21800000
opls_146-80    H    0.56281006    0.67269982    0.38685996    0.21800000
