#======================================================================
# Crystal Data Generated By AuToFF
#----------------------------------------------------------------------

data_AuToFF_phase_1

_cell_length_a                         22.0400
_cell_length_b                         22.0400
_cell_length_c                         3.7290
_cell_angle_alpha                      90.00
_cell_angle_beta                       90.00
_cell_angle_gamma                      120.00
_symmetry_space_group_name_H-M_alt     'P 1'
_symmetry_space_group_IT_number        1

loop_
_space_group_symop_operation_xyz
   'x, y, z'

loop_
   _atom_site_label
   _atom_site_type_symbol
   _atom_site_fract_x
   _atom_site_fract_y
   _atom_site_fract_z
   _atom_site_charge
opls_700-0    C    0.73675980    0.38428004    0.50000000    0.05880000
opls_700-1    C    0.61572013    0.35248020    0.50000000    0.05880000
opls_700-2    C    0.64752006    0.26323976    0.50000000    0.05880000
opls_700-3    C    0.26324020    0.61571996    0.50000000    0.05880000
opls_700-4    C    0.38427987    0.64751980    0.50000000    0.05880000
opls_700-5    C    0.35247994    0.73676024    0.50000000    0.05880000
opls_145-6    C    0.68630023    0.40374020    0.50000000    -0.09280000
opls_145-7    C    0.59626006    0.28256004    0.50000000    -0.09280000
opls_145-8    C    0.71743972    0.31369976    0.50000000    -0.09280000
opls_145-9    C    0.31369977    0.59625980    0.50000000    -0.09280000
opls_145-10    C    0.40373994    0.71743996    0.50000000    -0.09280000
opls_145-11    C    0.28256028    0.68630024    0.50000000    -0.09280000
opls_142-12    C    0.80936982    0.43765979    0.50000000    0.10800000
opls_142-13    C    0.56233995    0.37170984    0.50000000    0.10800000
opls_142-14    C    0.62828997    0.19062985    0.50000000    0.10800000
opls_142-15    C    0.19063018    0.56234021    0.50000000    0.10800000
opls_142-16    C    0.43766005    0.62829016    0.50000000    0.10800000
opls_142-17    C    0.37171003    0.80937015    0.50000000    0.10800000
opls_145-18    C    0.92807025    0.46088007    0.50000000    0.20700000
opls_145-19    C    0.53911998    0.46719005    0.50000000    0.20700000
opls_145-20    C    0.53280977    0.07192988    0.50000000    0.20700000
opls_145-21    C    0.07192975    0.53911993    0.50000000    0.20700000
opls_145-22    C    0.46088002    0.53280995    0.50000000    0.20700000
opls_145-23    C    0.46719023    0.92807012    0.50000000    0.20700000
opls_145-24    C    0.96695996    0.42724024    0.50000000    -0.20940000
opls_145-25    C    0.57276009    0.53971981    0.50000000    -0.20940000
opls_145-26    C    0.46027995    0.03303994    0.50000000    -0.20940000
opls_145-27    C    0.03304004    0.57275976    0.50000000    -0.20940000
opls_145-28    C    0.42723991    0.46028019    0.50000000    -0.20940000
opls_145-29    C    0.53972005    0.96696006    0.50000000    -0.20930000
opls_145-30    C    0.03890011    0.46594996    0.50000000    -0.18240000
opls_145-31    C    0.53404983    0.57294994    0.50000000    -0.18250000
opls_145-32    C    0.42705005    0.96110011    0.50000000    -0.18250000
opls_145-33    C    0.96109989    0.53405004    0.50000000    -0.18250000
opls_145-34    C    0.46595017    0.42705006    0.50000000    -0.18250000
opls_145-35    C    0.57294995    0.03889989    0.50000000    -0.18230000
opls_750-36    N    0.85495983    0.41779989    0.50000000    -0.29490000
opls_750-37    N    0.58219977    0.43715998    0.50000000    -0.29480000
opls_750-38    N    0.56283994    0.14504013    0.50000000    -0.29490000
opls_750-39    N    0.14504017    0.58220011    0.50000000    -0.29480000
opls_750-40    N    0.41780023    0.56284002    0.50000000    -0.29490000
opls_750-41    N    0.43716006    0.85495987    0.50000000    -0.29480000
opls_146-42    H    0.70235019    0.45878023    0.50000000    0.10880000
opls_146-43    H    0.54122014    0.24357004    0.50000000    0.10880000
opls_146-44    H    0.75642994    0.29765026    0.50000000    0.10880000
opls_146-45    H    0.29764981    0.54121977    0.50000000    0.10880000
opls_146-46    H    0.45877986    0.75642996    0.50000000    0.10880000
opls_146-47    H    0.24357006    0.70234974    0.50000000    0.10880000
opls_144-48    H    0.82347002    0.49197997    0.50000000    0.09560000
opls_144-49    H    0.50802006    0.33149021    0.50000000    0.09560000
opls_144-50    H    0.66850992    0.17652982    0.50000000    0.09560000
opls_144-51    H    0.17652998    0.50802003    0.50000000    0.09560000
opls_144-52    H    0.49197994    0.66850979    0.50000000    0.09560000
opls_144-53    H    0.33149008    0.82347018    0.50000000    0.09560000
opls_146-54    H    0.94114002    0.37073012    0.50000000    0.11280000
opls_146-55    H    0.62926989    0.57041001    0.50000000    0.11270000
opls_146-56    H    0.42959010    0.05885986    0.50000000    0.11260000
opls_146-57    H    0.05885998    0.62926988    0.50000000    0.11280000
opls_146-58    H    0.37073011    0.42958999    0.50000000    0.11260000
opls_146-59    H    0.57040990    0.94114014    0.50000000    0.11260000
opls_146-60    H    0.06723995    0.43797990    0.50000000    0.08860000
opls_146-61    H    0.56202016    0.62925992    0.50000000    0.08860000
opls_146-62    H    0.37073989    0.93276017    0.50000000    0.08860000
opls_146-63    H    0.93276005    0.56202010    0.50000000    0.08860000
opls_146-64    H    0.43797984    0.37074008    0.50000000    0.08860000
opls_146-65    H    0.62926011    0.06723983    0.50000000    0.08860000
