#======================================================================
# Crystal Data Generated By AuToFF
#----------------------------------------------------------------------

data_AuToFF_phase_1

_cell_length_a                         20.2297
_cell_length_b                         20.2297
_cell_length_c                         4.6810
_cell_angle_alpha                      90.00
_cell_angle_beta                       90.00
_cell_angle_gamma                      120.00
_symmetry_space_group_name_H-M_alt     'P 1'
_symmetry_space_group_IT_number        1

loop_
_space_group_symop_operation_xyz
   'x, y, z'

loop_
   _atom_site_label
   _atom_site_type_symbol
   _atom_site_fract_x
   _atom_site_fract_y
   _atom_site_fract_z
   _atom_site_charge
opls_750-0    N    0.15605985    0.84400006    0.46788079    -0.25100000
opls_750-1    N    0.15599975    0.31205981    0.46788079    -0.25100000
opls_750-2    N    0.68793990    0.84394013    0.46788079    -0.25100000
opls_239-3    N    0.33333010    0.66667009    0.62719077    -0.02260000
opls_239-4    N    0.00000000    0.00000000    0.41036103    -0.02230000
opls_916-5    C    0.04176020    0.96258040    0.41828028    0.13920000
opls_145-6    C    0.01828994    0.89725008    0.26174963    -0.24000000
opls_145-7    C    0.05725989    0.85980023    0.27772057    -0.24010000
opls_145-8    C    0.11977026    0.88613043    0.45334971    0.17060000
opls_145-9    C    0.14448023    0.95236032    0.60634907    -0.24010000
opls_145-10    C    0.10574008    0.98998997    0.58798975    -0.24000000
opls_142-11    C    0.20791010    0.85370015    0.64917966    0.08910000
opls_700-12    C    0.23999028    0.80564037    0.63847896    0.03590000
opls_145-13    C    0.20839989    0.74164000    0.46747063    -0.23340000
opls_145-14    C    0.23875983    0.69603006    0.46578936    -0.24020000
opls_916-15    C    0.30196014    0.71399012    0.62932920    0.14100000
opls_145-16    C    0.33380025    0.77853047    0.79678060    -0.24000000
opls_145-17    C    0.30280017    0.82355020    0.80415082    -0.23320000
opls_916-18    C    0.03741997    0.07918009    0.41828028    0.13920000
opls_145-19    C    0.10274994    0.12103990    0.26174963    -0.24000000
opls_145-20    C    0.14020031    0.19746019    0.27772057    -0.24010000
opls_145-21    C    0.11386989    0.23364002    0.45334971    0.17060000
opls_145-22    C    0.04764002    0.19211983    0.60634907    -0.24010000
opls_145-23    C    0.01001011    0.11574977    0.58798975    -0.24000000
opls_142-24    C    0.14629987    0.35421015    0.64917966    0.08910000
opls_700-25    C    0.19436019    0.43435032    0.63847896    0.03590000
opls_145-26    C    0.25836013    0.46676005    0.46747063    -0.23340000
opls_145-27    C    0.30397002    0.54272999    0.46578936    -0.24020000
opls_916-28    C    0.28601011    0.58797004    0.62932920    0.14100000
opls_145-29    C    0.22147023    0.55527035    0.79678060    -0.24010000
opls_145-30    C    0.17645015    0.47925018    0.80415082    -0.23330000
opls_916-31    C    0.92082011    0.95824008    0.41828028    0.13920000
opls_145-32    C    0.87896012    0.98171002    0.26174963    -0.24000000
opls_145-33    C    0.80254009    0.94274015    0.27772057    -0.24010000
opls_145-34    C    0.76636014    0.88023012    0.45334971    0.17060000
opls_145-35    C    0.80788003    0.85552041    0.60634907    -0.24010000
opls_145-36    C    0.88425030    0.89426026    0.58798975    -0.24000000
opls_142-37    C    0.64579031    0.79209027    0.64917966    0.08900000
opls_700-38    C    0.56565010    0.76001046    0.63847896    0.03580000
opls_145-39    C    0.53323998    0.79159996    0.46747063    -0.23340000
opls_145-40    C    0.45727015    0.76123995    0.46578936    -0.24020000
opls_916-41    C    0.41203003    0.69804040    0.62932920    0.14100000
opls_145-42    C    0.44473009    0.66620033    0.79678060    -0.24010000
opls_145-43    C    0.52074996    0.69720019    0.80415082    -0.23320000
opls_146-44    H    0.96937013    0.87501020    0.13002991    0.19020000
opls_146-45    H    0.03854005    0.80949038    0.15563982    0.19020000
opls_146-46    H    0.19330994    0.97562021    0.73954924    0.19110000
opls_146-47    H    0.12531005    0.04035006    0.70812006    0.19050000
opls_144-48    H    0.22813036    0.89626032    0.81446059    0.07860000
opls_146-49    H    0.15993999    0.72683015    0.33725913    0.18530000
opls_146-50    H    0.21296993    0.64655014    0.33757103    0.19030000
opls_146-51    H    0.38252042    0.79372046    0.92265969    0.19040000
opls_146-52    H    0.32790999    0.87243021    0.93906003    0.19060000
opls_146-53    H    0.12498976    0.09435981    0.13002991    0.19030000
opls_146-54    H    0.19050994    0.22905026    0.15563982    0.19020000
opls_146-55    H    0.02438023    0.21769030    0.73954924    0.19110000
opls_146-56    H    0.95964978    0.08495996    0.70812006    0.19050000
opls_144-57    H    0.10373972    0.33186982    0.81446059    0.07860000
opls_146-58    H    0.27316977    0.43310998    0.33725913    0.18530000
opls_146-59    H    0.35344992    0.56642025    0.33757103    0.19040000
opls_146-60    H    0.20628005    0.58879998    0.92265969    0.19040000
opls_146-61    H    0.12756995    0.45548000    0.93906003    0.19060000
opls_146-62    H    0.90564011    0.03062999    0.13002991    0.19030000
opls_146-63    H    0.77095008    0.96146050    0.15563982    0.19020000
opls_146-64    H    0.78231011    0.80669006    0.73954924    0.19110000
opls_146-65    H    0.91504016    0.87468999    0.70812006    0.19050000
opls_144-66    H    0.66813021    0.77187043    0.81446059    0.07860000
opls_146-67    H    0.56689003    0.84006044    0.33725913    0.18530000
opls_146-68    H    0.43357994    0.78703017    0.33757103    0.19040000
opls_146-69    H    0.41120031    0.61748013    0.92265969    0.19040000
opls_146-70    H    0.54452034    0.67209036    0.93906003    0.19060000
