#======================================================================
# Crystal Data Generated By AuToFF
#----------------------------------------------------------------------

data_AuToFF_phase_1

_cell_length_a                         36.9266
_cell_length_b                         36.9266
_cell_length_c                         3.8035
_cell_angle_alpha                      90.00
_cell_angle_beta                       90.00
_cell_angle_gamma                      120.00
_symmetry_space_group_name_H-M_alt     'P 1'
_symmetry_space_group_IT_number        1

loop_
_space_group_symop_operation_xyz
   'x, y, z'

loop_
   _atom_site_label
   _atom_site_type_symbol
   _atom_site_fract_x
   _atom_site_fract_y
   _atom_site_fract_z
   _atom_site_charge
opls_531-0    C    0.29214999    0.64354019    0.53010122    0.38120000
opls_700-1    C    0.24619002    0.61793994    0.53275930    -0.00520000
opls_523-2    C    0.36340002    0.58510002    0.46952018    -0.11700000
opls_145-3    C    0.38696021    0.56549019    0.47239122    -0.16320000
opls_145-4    C    0.43014018    0.58826018    0.54492967    0.20570000
opls_145-5    C    0.44869004    0.63150994    0.60533982    -0.16320000
opls_523-6    C    0.42518015    0.65125017    0.59848035    -0.11700000
opls_142-7    C    0.44339994    0.53186007    0.55291968    0.07280000
opls_700-8    C    0.47184019    0.51550015    0.55941107    -0.03570000
opls_166-9    C    0.45692007    0.47188015    0.56614960    0.29180000
opls_145-10    C    0.48474010    0.45712001    0.56177994    -0.21200000
opls_531-11    C    0.35645988    0.64861003    0.53010122    0.38120000
opls_700-12    C    0.38206005    0.62825002    0.53275930    -0.00520000
opls_523-13    C    0.41490010    0.77830020    0.46952018    -0.11700000
opls_145-14    C    0.43451011    0.82147022    0.47239122    -0.16380000
opls_145-15    C    0.41174025    0.84188025    0.54492967    0.20570000
opls_145-16    C    0.36848988    0.81717995    0.60533982    -0.16320000
opls_523-17    C    0.34875010    0.77393019    0.59848035    -0.11700000
opls_142-18    C    0.46814002    0.91154016    0.55291968    0.07280000
opls_700-19    C    0.48450011    0.95633998    0.55941107    -0.03570000
opls_166-20    C    0.52812010    0.98504004    0.56614960    0.29180000
opls_145-21    C    0.54288010    0.02761999    0.56177994    -0.21200000
opls_531-22    C    0.35139002    0.70785009    0.53010122    0.38120000
opls_700-23    C    0.37174993    0.75381003    0.53275930    -0.00520000
opls_523-24    C    0.22170004    0.63660010    0.46952018    -0.11700000
opls_145-25    C    0.17852999    0.61304022    0.47239122    -0.16380000
opls_145-26    C    0.15812016    0.56986019    0.54492967    0.20570000
opls_145-27    C    0.18282008    0.55131011    0.60533982    -0.16320000
opls_523-28    C    0.22606991    0.57481995    0.59848035    -0.11700000
opls_142-29    C    0.08845993    0.55660008    0.55291968    0.07280000
opls_700-30    C    0.04366012    0.52816019    0.55941107    -0.03570000
opls_166-31    C    0.01495998    0.54308012    0.56614960    0.29180000
opls_145-32    C    0.97238007    0.51525999    0.56177994    -0.21200000
opls_531-33    C    0.70785017    0.35646012    0.53010122    0.38120000
opls_700-34    C    0.75380998    0.38206006    0.53275930    -0.00520000
opls_523-35    C    0.63659998    0.41489998    0.46952018    -0.11700000
opls_145-36    C    0.61303994    0.43451012    0.47239122    -0.16320000
opls_145-37    C    0.56985998    0.41174013    0.54492967    0.20570000
opls_145-38    C    0.55130996    0.36849006    0.60533982    -0.16320000
opls_523-39    C    0.57482001    0.34875015    0.59848035    -0.11700000
opls_142-40    C    0.55660006    0.46813993    0.55291968    0.07280000
opls_700-41    C    0.52815997    0.48450016    0.55941107    -0.03570000
opls_166-42    C    0.54308008    0.52812016    0.56614960    0.29180000
opls_145-43    C    0.51525990    0.54287999    0.56177994    -0.21200000
opls_531-44    C    0.64354012    0.35138997    0.53010122    0.38120000
opls_700-45    C    0.61793995    0.37174998    0.53275930    -0.00520000
opls_523-46    C    0.58510006    0.22170011    0.46952018    -0.11700000
opls_145-47    C    0.56549005    0.17853010    0.47239122    -0.16380000
opls_145-48    C    0.58825990    0.15812006    0.54492967    0.20570000
opls_145-49    C    0.63151012    0.18282005    0.60533982    -0.16320000
opls_523-50    C    0.65125006    0.22607012    0.59848035    -0.11700000
opls_142-51    C    0.53186013    0.08846015    0.55291968    0.07280000
opls_700-52    C    0.51549989    0.04366002    0.55941107    -0.03570000
opls_166-53    C    0.47187990    0.01495996    0.56614960    0.29180000
opls_145-54    C    0.45711990    0.97238001    0.56177994    -0.21200000
opls_531-55    C    0.64860998    0.29214991    0.53010122    0.38120000
opls_700-56    C    0.62825007    0.24618997    0.53275930    -0.00520000
opls_523-57    C    0.77829996    0.36339990    0.46952018    -0.11700000
opls_145-58    C    0.82147017    0.38696009    0.47239122    -0.16320000
opls_145-59    C    0.84188000    0.43014012    0.54492967    0.20570000
opls_145-60    C    0.81718008    0.44869020    0.60533982    -0.16320000
opls_523-61    C    0.77393009    0.42518005    0.59848035    -0.11700000
opls_142-62    C    0.91154007    0.44339992    0.55291968    0.07280000
opls_700-63    C    0.95634003    0.47184013    0.55941107    -0.03570000
opls_166-64    C    0.98504018    0.45692020    0.56614960    0.29180000
opls_145-65    C    0.02761993    0.48474001    0.56177994    -0.21200000
opls_520-66    N    0.31445016    0.62366019    0.52995925    -0.41320000
opls_750-67    N    0.45698001    0.57182021    0.55815959    -0.29000000
opls_520-68    N    0.37633992    0.69079003    0.52995925    -0.41320000
opls_750-69    N    0.42818010    0.88516003    0.55815959    -0.29000000
opls_520-70    N    0.30921008    0.68555009    0.52995925    -0.41320000
opls_750-71    N    0.11484005    0.54302008    0.55815959    -0.28980000
opls_520-72    N    0.68555000    0.37634012    0.52995925    -0.41320000
opls_750-73    N    0.54302015    0.42818010    0.55815959    -0.29000000
opls_520-74    N    0.62366008    0.30920997    0.52995925    -0.41320000
opls_750-75    N    0.57181990    0.11483997    0.55815959    -0.28990000
opls_520-76    N    0.69078992    0.31444991    0.52995925    -0.41320000
opls_750-77    N    0.88515995    0.45697992    0.55815959    -0.29000000
opls_167-78    O    0.41460000    0.44238020    0.56373077    -0.40180000
opls_167-79    O    0.55762008    0.97222022    0.56373077    -0.38580000
opls_167-80    O    0.02778024    0.58540021    0.56373077    -0.40180000
opls_167-81    O    0.58540016    0.55762012    0.56373077    -0.40180000
opls_167-82    O    0.44238008    0.02778010    0.56373077    -0.38570000
opls_167-83    O    0.97221992    0.41460010    0.56373077    -0.40180000
opls_526-84    H    0.32997987    0.56756997    0.41420008    0.11100000
opls_146-85    H    0.37161001    0.53214995    0.41357960    0.11030000
opls_146-86    H    0.48217017    0.64887019    0.65900092    0.11030000
opls_526-87    H    0.43971007    0.68477021    0.64527935    0.11100000
opls_144-88    H    0.40969993    0.50862009    0.54089917    0.06000000
opls_146-89    H    0.47310986    0.42358996    0.56350993    0.11240000
opls_168-90    H    0.59994013    0.55035012    0.74014986    0.34670000
opls_526-91    H    0.43243011    0.76240995    0.41420008    0.11100000
opls_146-92    H    0.46785018    0.83946025    0.41357960    0.11030000
opls_146-93    H    0.35113004    0.83330003    0.65900092    0.11030000
opls_526-94    H    0.31523011    0.75494014    0.64527935    0.11100000
opls_144-95    H    0.49137993    0.90107998    0.54089917    0.06000000
opls_146-96    H    0.57641006    0.04952005    0.56350993    0.11240000
opls_168-97    H    0.44965003    0.04959010    0.74014986    0.34670000
opls_526-98    H    0.23759002    0.67002008    0.41420008    0.11100000
opls_146-99    H    0.16053997    0.62839012    0.41357960    0.11030000
opls_146-100    H    0.16669995    0.51783009    0.65900092    0.11030000
opls_526-101    H    0.24505997    0.56028996    0.64527935    0.11100000
opls_144-102    H    0.09891988    0.59029993    0.54089917    0.06000000
opls_146-103    H    0.95048009    0.52688999    0.56350993    0.11240000
opls_168-104    H    0.95040999    0.40006010    0.74014986    0.34670000
opls_526-105    H    0.67002013    0.43243003    0.41420008    0.11100000
opls_146-106    H    0.62838999    0.46785005    0.41357960    0.11030000
opls_146-107    H    0.51782999    0.35113012    0.65900092    0.11030000
opls_526-108    H    0.56029009    0.31523010    0.64527935    0.11100000
opls_144-109    H    0.59030007    0.49137991    0.54089917    0.06000000
opls_146-110    H    0.52689014    0.57641004    0.56350993    0.11240000
opls_168-111    H    0.40006002    0.44965020    0.74014986    0.34670000
opls_526-112    H    0.56756989    0.23759005    0.41420008    0.11100000
opls_146-113    H    0.53214998    0.16054006    0.41357960    0.11030000
opls_146-114    H    0.64886996    0.16669997    0.65900092    0.11030000
opls_526-115    H    0.68477004    0.24506017    0.64527935    0.11100000
opls_144-116    H    0.50862007    0.09892002    0.54089917    0.06000000
opls_146-117    H    0.42359010    0.95048026    0.56350993    0.11240000
opls_168-118    H    0.55035013    0.95041022    0.74014986    0.34670000
opls_526-119    H    0.76240998    0.32997992    0.41420008    0.11100000
opls_146-120    H    0.83946019    0.37161020    0.41357960    0.11030000
opls_146-121    H    0.83330005    0.48216991    0.65900092    0.11030000
opls_526-122    H    0.75494003    0.43971004    0.64527935    0.11100000
opls_144-123    H    0.90108012    0.40970007    0.54089917    0.06000000
opls_146-124    H    0.04951991    0.47311001    0.56350993    0.11240000
opls_168-125    H    0.04959016    0.59994021    0.74014986    0.34670000
