#======================================================================
# Crystal Data Generated By AuToFF
#----------------------------------------------------------------------

data_AuToFF_phase_1

_cell_length_a                         33.5000
_cell_length_b                         34.1000
_cell_length_c                         6.8000
_cell_angle_alpha                      90.00
_cell_angle_beta                       90.00
_cell_angle_gamma                      67.00
_symmetry_space_group_name_H-M_alt     'P 1'
_symmetry_space_group_IT_number        1

loop_
_space_group_symop_operation_xyz
   'x, y, z'

loop_
   _atom_site_label
   _atom_site_type_symbol
   _atom_site_fract_x
   _atom_site_fract_y
   _atom_site_fract_z
   _atom_site_charge
opls_145-0    C    0.02965005    0.80654983    0.99910000    -0.20290000
opls_700-1    C    0.03186004    0.84737977    0.99892941    0.03240000
opls_700-2    C    0.07416990    0.85054997    0.99955000    0.03480000
opls_145-3    C    0.11276999    0.81278987    0.99757941    -0.20310000
opls_700-4    C    0.99284009    0.88521983    0.99861029    0.03280000
opls_700-5    C    0.07674006    0.89148982    0.00238971    0.03260000
opls_700-6    C    0.03685008    0.93014990    0.00238971    0.03280000
opls_700-7    C    0.99539011    0.92708994    0.99925000    0.03260000
opls_145-8    C    0.03937003    0.97083999    0.00458971    -0.20280000
opls_145-9    C    0.11795011    0.89452971    0.00437059    -0.24070000
opls_166-10    C    0.15485007    0.85707991    0.00287059    0.17790000
opls_166-11    C    0.15224023    0.81697984    0.99923971    0.18100000
opls_166-12    C    0.98907013    0.80474985    0.99872059    0.17970000
opls_166-13    C    0.95078992    0.84181002    0.99830000    0.17940000
opls_145-14    C    0.95168023    0.88208977    0.99830000    -0.23610000
opls_145-15    C    0.95659017    0.96468979    0.99713971    -0.19020000
opls_166-16    C    0.00093988    0.00668000    0.00293971    0.17970000
opls_166-17    C    0.96032012    0.00372007    0.99896029    0.17940000
opls_145-18    C    0.92911012    0.11944005    0.00040000    -0.23090000
opls_145-19    C    0.88386994    0.14159989    0.99852941    -0.09960000
opls_700-20    C    0.86493000    0.18644012    0.99836029    0.07910000
opls_700-21    C    0.89256003    0.20954997    0.00012059    -0.00200000
opls_700-22    C    0.93869019    0.18707983    0.00197059    0.07560000
opls_145-23    C    0.95600001    0.14228006    0.00206029    -0.08930000
opls_145-24    C    0.81859994    0.20995998    0.99647941    -0.12650000
opls_700-25    C    0.87414010    0.25504011    0.00002941    -0.00180000
opls_700-26    C    0.82802989    0.27752012    0.99811029    0.07460000
opls_145-27    C    0.80093989    0.25355010    0.99635000    -0.12980000
opls_145-28    C    0.81072992    0.32231989    0.99800000    -0.08930000
opls_145-29    C    0.83763018    0.34513983    0.99980000    -0.23110000
opls_145-30    C    0.88283024    0.32296980    0.00176029    -0.09540000
opls_700-31    C    0.90177006    0.27812988    0.00187059    0.07930000
opls_145-32    C    0.94808995    0.25464984    0.00372059    -0.17090000
opls_145-33    C    0.96578002    0.21106004    0.00372059    -0.12980000
opls_700-34    C    0.34077011    0.73318993    0.99701029    0.07120000
opls_567-35    C    0.34942020    0.77128995    0.00188971    -0.00110000
opls_145-36    C    0.39175003    0.76993981    0.00367941    -0.10970000
opls_700-37    C    0.42621006    0.72961004    0.00046029    0.07130000
opls_567-38    C    0.41765001    0.69146000    0.99522059    0.01140000
opls_145-39    C    0.37532017    0.69284997    0.99352059    -0.11100000
opls_716-40    C    0.29509012    0.74288976    0.99637059    -0.10460000
opls_567-41    C    0.26975018    0.78609981    0.00042941    -0.31680000
opls_716-42    C    0.47188002    0.72003000    0.00162941    -0.10520000
opls_567-43    C    0.49737002    0.67691997    0.99731029    -0.31670000
opls_145-44    C    0.73720004    0.65819985    0.00085000    -0.20260000
opls_700-45    C    0.73508994    0.61731990    0.00076029    0.03240000
opls_700-46    C    0.69281002    0.61412995    0.99952059    0.03110000
opls_145-47    C    0.65410020    0.65181996    0.00107941    -0.20200000
opls_700-48    C    0.77416011    0.57949990    0.00127059    0.03260000
opls_700-49    C    0.69045012    0.57312001    0.99657059    0.03110000
opls_700-50    C    0.73032013    0.53448987    0.99712059    0.03240000
opls_700-51    C    0.77175008    0.53756003    0.00050000    0.03260000
opls_145-52    C    0.72773011    0.49381985    0.99522059    -0.20290000
opls_145-53    C    0.64938004    0.56984978    0.99400000    -0.20200000
opls_166-54    C    0.61243017    0.60716991    0.99521029    0.17720000
opls_166-55    C    0.61475994    0.64739997    0.99901029    0.17940000
opls_166-56    C    0.77773998    0.66002978    0.00152059    0.17950000
opls_166-57    C    0.81608018    0.62301994    0.00203971    0.17940000
opls_145-58    C    0.81528011    0.58270992    0.00192059    -0.19020000
opls_145-59    C    0.81052008    0.49985982    0.00270000    -0.24070000
opls_166-60    C    0.76609013    0.45794002    0.99712941    0.18230000
opls_166-61    C    0.80676015    0.46082986    0.00092941    0.17910000
opls_145-62    C    0.85938021    0.70636989    0.00092059    -0.23200000
opls_145-63    C    0.83812997    0.75104988    0.00035000    -0.04540000
opls_145-64    C    0.86167009    0.77681000    0.99967059    -0.04590000
opls_145-65    C    0.90729008    0.75859993    0.99952941    -0.23200000
opls_145-66    C    0.92853997    0.71392981    0.00008971    -0.04840000
opls_145-67    C    0.90501013    0.68817989    0.00077059    -0.04440000
opls_145-68    C    0.01683998    0.83901002    0.49917941    -0.20260000
opls_700-69    C    0.01889028    0.87990973    0.49926029    0.03480000
opls_700-70    C    0.06113998    0.88315989    0.50046029    0.03110000
opls_145-71    C    0.09987999    0.84549982    0.49890000    -0.20200000
opls_700-72    C    0.97979022    0.91769977    0.49877941    0.03260000
opls_700-73    C    0.06344021    0.92419977    0.50337941    0.03090000
opls_700-74    C    0.02354019    0.96278977    0.50283971    0.03240000
opls_700-75    C    0.98214016    0.95966991    0.49951029    0.03260000
opls_145-76    C    0.02607007    0.00349993    0.50472059    -0.20290000
opls_145-77    C    0.10449009    0.92752002    0.50591029    -0.20200000
opls_166-78    C    0.14146998    0.89024003    0.50470000    0.18420000
opls_166-79    C    0.13920017    0.84998002    0.50092941    0.17810000
opls_166-80    C    0.97633000    0.83711000    0.49853971    0.17950000
opls_166-81    C    0.93796017    0.87409977    0.49805000    0.17940000
opls_145-82    C    0.93869017    0.91442986    0.49817941    -0.19020000
opls_145-83    C    0.94333001    0.99732998    0.49733971    -0.24070000
opls_166-84    C    0.98767992    0.03933994    0.50283971    0.18020000
opls_166-85    C    0.94702996    0.03638988    0.49908971    0.17810000
opls_145-86    C    0.91604001    0.15209999    0.50027059    -0.23110000
opls_145-87    C    0.87083010    0.17427002    0.49832059    -0.09480000
opls_700-88    C    0.85190014    0.21910994    0.49823971    0.07930000
opls_700-89    C    0.87952007    0.24220991    0.50007941    -0.00190000
opls_700-90    C    0.92564013    0.21972989    0.50200000    0.07460000
opls_145-91    C    0.94292995    0.17493012    0.50208971    -0.08930000
opls_145-92    C    0.80557995    0.24258997    0.49641029    -0.17090000
opls_700-93    C    0.86110014    0.28770004    0.49998971    -0.00190000
opls_700-94    C    0.81497995    0.31016986    0.49812941    0.07460000
opls_145-95    C    0.78788014    0.28618997    0.49640000    -0.12570000
opls_145-96    C    0.79765990    0.35496008    0.49800000    -0.09090000
opls_145-97    C    0.82455990    0.37780996    0.49963971    -0.23100000
opls_145-98    C    0.86979010    0.35563993    0.50152941    -0.10130000
opls_700-99    C    0.88874007    0.31080001    0.50173971    0.07910000
opls_145-100    C    0.93507008    0.28729003    0.50362941    -0.15190000
opls_145-101    C    0.95272988    0.24369003    0.50377941    -0.08280000
opls_700-102    C    0.32773017    0.76788974    0.49940000    0.07150000
opls_567-103    C    0.33628997    0.80602990    0.50462941    -0.01890000
opls_145-104    C    0.37862007    0.80464981    0.50632941    -0.11150000
opls_700-105    C    0.41315997    0.76430985    0.50283971    0.07120000
opls_567-106    C    0.40452003    0.72620983    0.49796029    -0.00140000
opls_145-107    C    0.36218991    0.72755997    0.49617059    -0.10980000
opls_716-108    C    0.28206021    0.77746978    0.49822941    -0.10020000
opls_567-109    C    0.25656006    0.82057980    0.50256029    -0.31680000
opls_716-110    C    0.45885012    0.75461002    0.50348971    -0.10450000
opls_567-111    C    0.48418007    0.71138977    0.49943971    -0.31680000
opls_145-112    C    0.72438997    0.69066004    0.50092059    -0.20310000
opls_700-113    C    0.72212001    0.64986005    0.50108971    0.03240000
opls_700-114    C    0.67977992    0.64675006    0.50043971    0.03240000
opls_145-115    C    0.64121019    0.68452991    0.50241029    -0.20310000
opls_700-116    C    0.76110995    0.61197985    0.50142941    0.03260000
opls_700-117    C    0.67714997    0.60582996    0.49757059    0.03260000
opls_700-118    C    0.71701012    0.56713005    0.49757941    0.03280000
opls_700-119    C    0.75848999    0.57014000    0.50077059    0.03260000
opls_145-120    C    0.71443020    0.52646992    0.49535000    -0.20310000
opls_145-121    C    0.63591013    0.60284996    0.49555000    -0.24070000
opls_166-122    C    0.59905008    0.64033002    0.49705000    0.17790000
opls_166-123    C    0.60172001    0.68039983    0.50070000    0.17720000
opls_166-124    C    0.76500010    0.69239981    0.50132059    0.18010000
opls_166-125    C    0.80325018    0.65529981    0.50178971    0.17940000
opls_145-126    C    0.80229990    0.61505001    0.50178971    -0.19010000
opls_145-127    C    0.79726017    0.53250989    0.50290000    -0.19020000
opls_166-128    C    0.75283016    0.49059996    0.49702059    0.18020000
opls_166-129    C    0.79348002    0.49350000    0.50105000    0.17940000
opls_145-130    C    0.84687018    0.73842995    0.50055000    -0.23200000
opls_145-131    C    0.82562012    0.78309974    0.49998971    -0.04590000
opls_145-132    C    0.84914024    0.80885986    0.49932059    -0.04440000
opls_145-133    C    0.89476990    0.79065998    0.49917059    -0.23200000
opls_145-134    C    0.91602014    0.74597999    0.49972941    -0.04540000
opls_145-135    C    0.89249013    0.72022975    0.50041029    -0.04840000
opls_146-136    H    0.12146010    0.92515998    0.00688971    0.07850000
opls_146-137    H    0.07026999    0.97482989    0.00746029    0.06730000
opls_146-138    H    0.92421013    0.96388983    0.99378971    0.07840000
opls_146-139    H    0.11245005    0.78079991    0.99453971    0.10720000
opls_146-140    H    0.05863023    0.77676986    0.99987059    0.08800000
opls_146-141    H    0.92095008    0.91011978    0.99840000    0.08640000
opls_146-142    H    0.77544015    0.34086001    0.99652941    0.11220000
opls_146-143    H    0.00128997    0.19370982    0.00516029    0.09400000
opls_146-144    H    0.96938014    0.27239001    0.00515000    0.08290000
opls_146-145    H    0.79726013    0.19228002    0.99507941    0.06530000
opls_146-146    H    0.86344990    0.12298012    0.99723971    0.09190000
opls_146-147    H    0.99127993    0.12373993    0.00345000    0.08480000
opls_146-148    H    0.76543005    0.27093983    0.99485000    0.11240000
opls_146-149    H    0.90323984    0.34160008    0.00315000    0.09190000
opls_146-150    H    0.39792013    0.79929989    0.00753971    0.07210000
opls_146-151    H    0.36915007    0.66348989    0.98948971    0.07210000
opls_570-152    H    0.28095014    0.71879996    0.99287941    0.08490000
opls_570-153    H    0.48584002    0.74426985    0.00572059    0.08620000
opls_146-154    H    0.64593988    0.53920008    0.99127941    0.06240000
opls_146-155    H    0.69679004    0.48990004    0.99240000    0.07370000
opls_146-156    H    0.84291992    0.50064003    0.00597059    0.10100000
opls_146-157    H    0.65431004    0.68386981    0.00422941    0.07840000
opls_146-158    H    0.70819022    0.68795975    0.99996029    0.08430000
opls_146-159    H    0.84601989    0.55469999    0.00193971    0.08740000
opls_146-160    H    0.80244021    0.76505979    0.00047059    0.06530000
opls_146-161    H    0.84507014    0.81175002    0.99922941    0.06770000
opls_146-162    H    0.96423006    0.69994986    0.99997059    0.06530000
opls_146-163    H    0.92160023    0.65323987    0.00118971    0.07810000
opls_146-164    H    0.10788002    0.95819998    0.50862059    0.06730000
opls_146-165    H    0.05698015    0.00745989    0.50750000    0.06240000
opls_146-166    H    0.91095019    0.99650995    0.49410000    0.09370000
opls_146-167    H    0.09973001    0.81343977    0.49577941    0.08210000
opls_146-168    H    0.04588015    0.80926987    0.50003971    0.08490000
opls_146-169    H    0.90793006    0.94240985    0.49818971    0.08490000
opls_146-170    H    0.76238011    0.37349988    0.49658971    0.08480000
opls_146-171    H    0.98823000    0.22629998    0.50528971    0.07530000
opls_146-172    H    0.95640989    0.30496999    0.50505000    0.06530000
opls_146-173    H    0.78428988    0.22486000    0.49498971    0.06530000
opls_146-174    H    0.85042008    0.15564006    0.49692941    0.09200000
opls_146-175    H    0.97822002    0.15639000    0.50355000    0.11220000
opls_146-176    H    0.75237993    0.30353000    0.49497059    0.09590000
opls_146-177    H    0.89021002    0.37426002    0.50281029    0.09190000
opls_146-178    H    0.38478992    0.83400002    0.51036029    0.07580000
opls_146-179    H    0.35602011    0.69819989    0.49231029    0.07210000
opls_570-180    H    0.26810009    0.75321974    0.49416029    0.07480000
opls_570-181    H    0.47299014    0.77868995    0.50700000    0.08570000
opls_146-182    H    0.63236022    0.57223977    0.49301029    0.07840000
opls_146-183    H    0.68351004    0.52253003    0.49243971    0.06240000
opls_146-184    H    0.82967000    0.53324995    0.50628971    0.08030000
opls_146-185    H    0.64158003    0.71651000    0.50547941    0.06380000
opls_146-186    H    0.69544014    0.72045976    0.50012059    0.08670000
opls_146-187    H    0.83299987    0.58699006    0.50172059    0.09020000
opls_146-188    H    0.78992005    0.79708002    0.50011029    0.08290000
opls_146-189    H    0.83255013    0.84379988    0.49888971    0.07810000
opls_146-190    H    0.95172018    0.73196977    0.49962059    0.08290000
opls_146-191    H    0.90908010    0.68529005    0.50085000    0.07810000
opls_167-192    O    0.19826004    0.85129003    0.00395000    -0.31760000
opls_167-193    O    0.19381020    0.78535975    0.99785000    -0.30630000
opls_167-194    O    0.97842989    0.76935999    0.99912059    -0.31110000
opls_167-195    O    0.91537009    0.83027995    0.99841029    -0.31890000
opls_167-196    O    0.92791008    0.04452006    0.99748971    -0.31390000
opls_167-197    O    0.99485006    0.04927998    0.00410000    -0.30480000
opls_167-198    O    0.56923000    0.61246982    0.99382941    -0.31110000
opls_167-199    O    0.57294996    0.67874990    0.00027941    -0.31690000
opls_167-200    O    0.78833013    0.69549004    0.00122059    -0.30920000
opls_167-201    O    0.85145016    0.63461978    0.00210000    -0.31480000
opls_167-202    O    0.83906001    0.41999992    0.00245000    -0.31700000
opls_167-203    O    0.77203011    0.41540981    0.99618971    -0.31120000
opls_167-204    O    0.18465008    0.88498981    0.50605000    -0.30120000
opls_167-205    O    0.18103013    0.81866991    0.49965000    -0.31700000
opls_167-206    O    0.96580012    0.80161979    0.49883971    -0.31180000
opls_167-207    O    0.90261998    0.86244004    0.49802059    -0.31770000
opls_167-208    O    0.91468990    0.07720007    0.49760000    -0.31390000
opls_167-209    O    0.98168014    0.08188990    0.50378971    -0.31120000
opls_167-210    O    0.55561991    0.64616993    0.49592941    -0.31720000
opls_167-211    O    0.56017002    0.71205975    0.50207941    -0.30630000
opls_167-212    O    0.77569003    0.72776004    0.50092059    -0.30300000
opls_167-213    O    0.83870005    0.66677987    0.50168971    -0.31370000
opls_167-214    O    0.82584013    0.45267993    0.50253971    -0.31390000
opls_167-215    O    0.75885994    0.44800986    0.49585000    -0.30590000
MOF2_B_2-216    B    0.22136001    0.80717998    0.00082941    0.62790000
MOF2_B_2-217    B    0.93316026    0.78576976    0.99896029    0.61690000
MOF2_B_2-218    B    0.94992985    0.07180013    0.00067059    0.61700000
MOF2_B_2-219    B    0.54579003    0.65645977    0.99716029    0.62770000
MOF2_B_2-220    B    0.83362022    0.67910990    0.00148971    0.61690000
MOF2_B_2-221    B    0.81693988    0.39278007    0.99950000    0.61700000
MOF2_B_2-222    B    0.20814015    0.84100975    0.50272941    0.62780000
MOF2_B_2-223    B    0.92050008    0.81794992    0.49860000    0.61690000
MOF2_B_2-224    B    0.93676004    0.10446007    0.50052941    0.61700000
MOF2_B_2-225    B    0.53258019    0.69028985    0.49906029    0.62780000
MOF2_B_2-226    B    0.82096988    0.71129005    0.50112059    0.61700000
MOF2_B_2-227    B    0.80377006    0.42544001    0.49932941    0.61700000
opls_633-228    S    0.46605006    0.64629003    0.99172941    0.14490000
opls_633-229    S    0.30130028    0.81626973    0.00533971    0.18570000
opls_633-230    S    0.45263995    0.68123005    0.49451029    0.19040000
opls_633-231    S    0.28789022    0.85119987    0.50812941    0.14490000
