#======================================================================
# Crystal Data Generated By AuToFF
#----------------------------------------------------------------------

data_AuToFF_phase_1

_cell_length_a                         37.7150
_cell_length_b                         37.6910
_cell_length_c                         3.5500
_cell_angle_alpha                      90.01
_cell_angle_beta                       89.98
_cell_angle_gamma                      120.01
_symmetry_space_group_name_H-M_alt     'P 1'
_symmetry_space_group_IT_number        1

loop_
_space_group_symop_operation_xyz
   'x, y, z'

loop_
   _atom_site_label
   _atom_site_type_symbol
   _atom_site_fract_x
   _atom_site_fract_y
   _atom_site_fract_z
   _atom_site_charge
opls_700-0    C    0.47877018    0.52351010    0.06836901    -0.03400000
opls_166-1    C    0.46643017    0.48265023    0.97143944    0.22830000
opls_145-2    C    0.49572993    0.46971005    0.96276056    -0.21440000
opls_700-3    C    0.53673003    0.49630995    0.06721127    -0.02730000
opls_166-4    C    0.54894002    0.53706994    0.16492958    0.22710000
opls_145-5    C    0.51978998    0.55012007    0.16961127    -0.26810000
opls_181-6    C    0.60986013    0.60400001    0.12387042    -0.19340000
opls_181-7    C    0.40577007    0.41556995    0.00403099    -0.19110000
opls_142-8    C    0.56719010    0.48204016    0.07281972    0.07560000
opls_142-9    C    0.44861990    0.53810994    0.07061972    0.07560000
opls_145-10    C    0.43519020    0.59551011    0.07412958    0.19610000
opls_145-11    C    0.58278984    0.42635997    0.98785070    0.19140000
opls_145-12    C    0.56642998    0.38628016    0.85360000    -0.16230000
opls_145-13    C    0.58956988    0.36657005    0.85283099    -0.12780000
opls_700-14    C    0.62983001    0.38603996    0.99769859    0.06410000
opls_145-15    C    0.64614999    0.42648991    0.13358028    -0.12420000
opls_145-16    C    0.62321998    0.44649011    0.12647042    -0.17270000
opls_145-17    C    0.45228004    0.63620022    0.95456901    -0.16400000
opls_145-18    C    0.42885015    0.65555022    0.94332113    -0.12770000
opls_700-19    C    0.38764014    0.63517015    0.06360000    0.06490000
opls_145-20    C    0.37102999    0.59458005    0.19718028    -0.12290000
opls_145-21    C    0.39430999    0.57489998    0.19927887    -0.17510000
opls_700-22    C    0.65394018    0.36396013    0.02209014    0.06740000
opls_700-23    C    0.36222016    0.65579001    0.03647042    0.07180000
opls_145-24    C    0.69676989    0.38567997    0.03485070    -0.16780000
opls_166-25    C    0.31483003    0.69589009    0.92649859    0.19020000
opls_700-26    C    0.49561998    0.96753023    0.99832958    -0.03410000
opls_166-27    C    0.53675003    0.99826002    0.92969014    0.21940000
opls_145-28    C    0.54837985    0.03954993    0.97681972    -0.24390000
opls_700-29    C    0.52051986    0.05149994    0.10201972    -0.05130000
opls_166-30    C    0.47987990    0.02121999    0.17701127    0.21730000
opls_145-31    C    0.46799000    0.97957009    0.13289014    -0.21360000
opls_181-32    C    0.41317998    0.01535004    0.12760000    -0.19330000
opls_181-33    C    0.57514012    0.96290010    0.00265070    -0.19260000
opls_142-34    C    0.53354008    0.09558992    0.14480000    0.07240000
opls_142-35    C    0.48070014    0.92348008    0.91940000    0.06990000
opls_145-36    C    0.42660998    0.85175003    0.02561127    0.19690000
opls_145-37    C    0.58790016    0.16716009    0.04487042    0.19500000
opls_145-38    C    0.62614000    0.19005001    0.87718028    -0.17020000
opls_145-39    C    0.64608998    0.23264017    0.87934930    -0.18630000
opls_700-40    C    0.63110000    0.25401997    0.07694930    0.07100000
opls_145-41    C    0.59133998    0.23117008    0.23305915    -0.12950000
opls_145-42    C    0.56963000    0.18801999    0.21332113    -0.18480000
opls_145-43    C    0.38793030    0.82885024    0.18598873    -0.15520000
opls_145-44    C    0.36763004    0.78624011    0.17821127    -0.18700000
opls_700-45    C    0.38295009    0.76486007    0.98705070    0.06700000
opls_145-46    C    0.42292988    0.78763003    0.83574930    -0.12080000
opls_145-47    C    0.44486004    0.83081016    0.85805070    -0.18290000
opls_700-48    C    0.65590008    0.29991000    0.08447887    -0.02360000
opls_700-49    C    0.35860013    0.71897008    0.98443099    -0.02340000
opls_145-50    C    0.63427990    0.32119000    0.04187042    -0.16550000
opls_145-51    C    0.31983015    0.63306024    0.98045070    -0.16540000
opls_700-52    C    0.04987005    0.53201019    0.87807042    -0.04730000
opls_166-53    C    0.02348985    0.54809995    0.83732113    0.21420000
opls_145-54    C    0.98162985    0.52370003    0.92172958    -0.26160000
opls_700-55    C    0.96520011    0.48289993    0.04240000    -0.03360000
opls_166-56    C    0.99154002    0.46605993    0.05898873    0.23000000
opls_145-57    C    0.03346984    0.49110003    0.98929859    -0.22850000
opls_181-58    C    0.94847015    0.39345018    0.94469859    -0.18590000
opls_181-59    C    0.03779019    0.61735022    0.89227887    -0.19340000
opls_142-60    C    0.92093999    0.45797005    0.13747887    0.07800000
opls_142-61    C    0.09466003    0.55901994    0.82845070    0.07570000
opls_145-62    C    0.16390008    0.57134996    0.85663099    0.19840000
opls_145-63    C    0.85205014    0.44582002    0.12521972    0.19860000
opls_145-64    C    0.82697009    0.45991010    0.27860000    -0.18440000
opls_145-65    C    0.78408008    0.43401006    0.28885915    -0.12080000
opls_700-66    C    0.76557996    0.39424991    0.12956901    0.07080000
opls_145-67    C    0.79095013    0.38306020    0.94898873    -0.18640000
opls_145-68    C    0.83336987    0.40697009    0.95863099    -0.15790000
opls_145-69    C    0.18987009    0.55814998    0.70783099    -0.17490000
opls_145-70    C    0.23271003    0.58422021    0.71456056    -0.13370000
opls_700-71    C    0.25031992    0.62337013    0.88563944    0.07260000
opls_145-72    C    0.22397014    0.63340995    0.06576901    -0.18700000
opls_145-73    C    0.18157999    0.60927994    0.03990986    -0.15720000
opls_700-74    C    0.72006996    0.36644011    0.10038873    -0.02540000
opls_700-75    C    0.29571014    0.65167025    0.92605070    -0.02480000
opls_166-76    C    0.69996010    0.32222995    0.11972113    0.19020000
opls_145-77    C    0.38055011    0.69845995    0.05254085    -0.16650000
opls_245-78    C    0.72535987    0.23991998    0.12574930    -0.10550000
opls_246-79    C    0.79262019    0.26773014    0.37536901    -0.00320000
opls_136-80    C    0.78780004    0.30387018    0.23621127    -0.26440000
opls_158-81    C    0.74340008    0.28650001    0.09798873    0.17350000
opls_465-82    C    0.74426990    0.18960003    0.31834085    0.59860000
opls_468-83    C    0.77290013    0.14384008    0.47392958    0.45420000
opls_135-84    C    0.78684995    0.11313992    0.31696056    -0.45930000
opls_135-85    C    0.81253991    0.17771992    0.66090986    -0.46040000
opls_135-86    C    0.73017989    0.11366009    0.66470986    -0.45920000
opls_245-87    C    0.28758990    0.77705008    0.91061127    -0.10460000
opls_158-88    C    0.27068995    0.73080010    0.94563944    0.17690000
opls_136-89    C    0.22605010    0.71207022    0.81287887    -0.27370000
opls_246-90    C    0.21819011    0.74711018    0.69429859    -0.00240000
opls_465-91    C    0.26681022    0.82477021    0.67092113    0.59860000
opls_468-92    C    0.23895996    0.87074999    0.46129859    0.45480000
opls_135-93    C    0.19820027    0.83886018    0.27625915    -0.47520000
opls_135-94    C    0.28246005    0.89928998    0.28309014    -0.45930000
opls_135-95    C    0.22792005    0.90413024    0.59312958    -0.45930000
opls_465-96    C    0.83669013    0.27810009    0.32196056    0.51040000
opls_468-97    C    0.89061995    0.26657988    0.08161972    -0.18630000
opls_465-98    C    0.17609009    0.73940007    0.82549014    0.44600000
opls_468-99    C    0.11911004    0.75254020    0.78418028    -0.19330000
opls_179-100    O    0.58969001    0.56347014    0.27769014    -0.19520000
opls_179-101    O    0.42567996    0.45645010    0.85827887    -0.20140000
opls_179-102    O    0.45232008    0.03332998    0.30763944    -0.19340000
opls_179-103    O    0.56663997    0.98992008    0.78876901    -0.20140000
opls_179-104    O    0.97846995    0.42571998    0.17343944    -0.20990000
opls_179-105    O    0.03794000    0.58630017    0.66465915    -0.17780000
opls_179-106    O    0.71990010    0.30236997    0.29316056    -0.26170000
opls_467-107    O    0.76636002    0.16960010    0.21369014    -0.32610000
opls_466-108    O    0.70859993    0.16818016    0.41390986    -0.47600000
opls_179-109    O    0.29469014    0.71543018    0.75145070    -0.26160000
opls_467-110    O    0.24274006    0.84384017    0.73038873    -0.32710000
opls_466-111    O    0.30232014    0.84624000    0.57243944    -0.47230000
opls_467-112    O    0.84782000    0.25306996    0.12474930    -0.21300000
opls_466-113    O    0.86302014    0.30990010    0.46825070    -0.49510000
opls_467-114    O    0.15992016    0.76282022    0.67814085    -0.21640000
opls_466-115    O    0.15467019    0.70987002    0.02645915    -0.49510000
opls_750-116    N    0.46079016    0.57713005    0.07536901    -0.32380000
opls_750-117    N    0.55690988    0.44455006    0.98549859    -0.32110000
opls_750-118    N    0.44603003    0.89558012    0.05894085    -0.32990000
opls_750-119    N    0.56966011    0.12337001    0.03278028    -0.34150000
opls_750-120    N    0.12007997    0.54510996    0.84625070    -0.32210000
opls_750-121    N    0.89580003    0.47204993    0.10278028    -0.32640000
opls_239-122    N    0.75740006    0.23018005    0.22363944    -0.20880000
opls_239-123    N    0.25494010    0.78558000    0.80407887    -0.20730000
opls_146-124    H    0.48659008    0.43900001    0.86836901    0.12120000
opls_146-125    H    0.52898001    0.58086993    0.26210986    0.12190000
opls_185-126    H    0.59019002    0.61001007    0.93312958    0.07540000
opls_185-127    H    0.63709008    0.60864015    0.96385070    0.07550000
opls_185-128    H    0.62070004    0.62692000    0.35283944    0.08020000
opls_185-129    H    0.42510012    0.40966013    0.19985915    0.07490000
opls_185-130    H    0.39620005    0.39328018    0.77170986    0.10200000
opls_185-131    H    0.37773008    0.40986993    0.15480000    0.07930000
opls_144-132    H    0.59825024    0.50367020    0.15447887    0.11960000
opls_144-133    H    0.41633003    0.51590012    0.05092113    0.12440000
opls_146-134    H    0.53548993    0.37028012    0.74409859    0.11970000
opls_146-135    H    0.57572990    0.33625992    0.73163099    0.12360000
opls_146-136    H    0.67621990    0.44255996    0.26043944    0.12480000
opls_146-137    H    0.63709010    0.47704009    0.24205915    0.12660000
opls_146-138    H    0.48377014    0.65268016    0.85927887    0.11970000
opls_146-139    H    0.44304003    0.68624010    0.82954085    0.12450000
opls_146-140    H    0.34027013    0.57807023    0.30887887    0.12030000
opls_146-141    H    0.38062013    0.54405014    0.30903099    0.12590000
opls_146-142    H    0.71255021    0.41841008    0.99080000    0.12360000
opls_146-143    H    0.57970999    0.06247016    0.91276901    0.11640000
opls_146-144    H    0.43687007    0.95653010    0.20165070    0.12110000
opls_185-145    H    0.40796016    0.99106008    0.92216056    0.07570000
opls_185-146    H    0.41059999    0.03981007    0.97841972    0.07520000
opls_185-147    H    0.38857001    0.00190010    0.34132113    0.07940000
opls_185-148    H    0.57555011    0.93974024    0.81309014    0.07570000
opls_185-149    H    0.55223012    0.94624998    0.22523944    0.07860000
opls_185-150    H    0.60589017    0.98081005    0.13263099    0.09110000
opls_144-151    H    0.51253018    0.10425014    0.26238028    0.11860000
opls_144-152    H    0.49879011    0.91492019    0.74685070    0.12500000
opls_146-153    H    0.63987011    0.17467010    0.73147887    0.12110000
opls_146-154    H    0.67302003    0.24962997    0.71550986    0.24630000
opls_146-155    H    0.57759011    0.24631012    0.38192958    0.12510000
opls_146-156    H    0.53976991    0.17152994    0.34314930    0.12320000
opls_146-157    H    0.37421008    0.84420013    0.33240000    0.12130000
opls_146-158    H    0.34036004    0.76907011    0.33563944    0.25390000
opls_146-159    H    0.43689016    0.77222012    0.69461972    0.12380000
opls_146-160    H    0.47525996    0.84726998    0.73849014    0.12030000
opls_146-161    H    0.60132000    0.30377003    0.02656056    0.11490000
opls_146-162    H    0.30524995    0.60008000    0.97567042    0.12060000
opls_146-163    H    0.96176009    0.53644003    0.88283099    0.12070000
opls_146-164    H    0.05331005    0.47824019    0.02374085    0.11970000
opls_185-165    H    0.96262000    0.37728013    0.80407887    0.09110000
opls_185-166    H    0.93481002    0.40436995    0.73085915    0.07640000
opls_185-167    H    0.92326999    0.37111003    0.12541972    0.07950000
opls_185-168    H    0.04299023    0.64341025    0.71001127    0.07520000
opls_185-169    H    0.06361005    0.62914003    0.09441127    0.07480000
opls_185-170    H    0.00809005    0.60622001    0.03960000    0.07520000
opls_144-171    H    0.90882990    0.42662000    0.22594085    0.10270000
opls_144-172    H    0.10638007    0.59156997    0.79332113    0.09860000
opls_146-173    H    0.84060005    0.49034001    0.39878028    0.12150000
opls_146-174    H    0.76563010    0.44504005    0.42236056    0.12400000
opls_146-175    H    0.77692006    0.35736016    0.77085915    0.25310000
opls_146-176    H    0.85143994    0.39650005    0.80876056    0.12150000
opls_146-177    H    0.17695018    0.52843017    0.57407887    0.12110000
opls_146-178    H    0.25167016    0.57393014    0.57936056    0.12370000
opls_146-179    H    0.23698003    0.65865018    0.25212958    0.25310000
opls_146-180    H    0.16274018    0.61890004    0.18818028    0.12400000
opls_146-181    H    0.41277005    0.71636018    0.12016901    0.12190000
opls_140-182    H    0.69918010    0.22633013    0.31640000    0.08780000
opls_140-183    H    0.71259996    0.22441987    0.86230986    0.11660000
opls_140-184    H    0.78888014    0.26524020    0.67163944    0.11090000
opls_140-185    H    0.80987009    0.31996996    0.00750986    0.09900000
opls_140-186    H    0.79790012    0.32815004    0.44229859    0.12090000
opls_185-187    H    0.74430996    0.29292010    0.80932958    0.11520000
opls_140-188    H    0.78773019    0.10941012    0.01838028    0.11980000
opls_140-189    H    0.76727013    0.08103009    0.41396901    0.17300000
opls_140-190    H    0.81805978    0.12079988    0.41018028    0.11590000
opls_140-191    H    0.83739995    0.19086994    0.45198028    0.12800000
opls_140-192    H    0.82749983    0.16981999    0.88107887    0.11710000
opls_140-193    H    0.80842017    0.20369018    0.72965070    0.13150000
opls_140-194    H    0.72834001    0.08806013    0.83069859    0.12800000
opls_140-195    H    0.70766010    0.09742005    0.43738028    0.17670000
opls_140-196    H    0.71558008    0.12701007    0.83463944    0.13710000
opls_140-197    H    0.31404011    0.79118014    0.72410986    0.10150000
opls_140-198    H    0.29984012    0.79276007    0.17352113    0.11320000
opls_185-199    H    0.27019988    0.72482000    0.23536901    0.11520000
opls_140-200    H    0.20533011    0.69368014    0.03889014    0.13310000
opls_140-201    H    0.21733016    0.68888012    0.59796901    0.12000000
opls_140-202    H    0.21771991    0.74766003    0.39407887    0.09460000
opls_140-203    H    0.19848008    0.81068995    0.19805915    0.12660000
opls_140-204    H    0.18557022    0.84870019    0.05809859    0.16730000
opls_140-205    H    0.17307005    0.82845999    0.48225070    0.13060000
opls_140-206    H    0.28724009    0.92721997    0.14338873    0.13240000
opls_140-207    H    0.29582015    0.88520003    0.10892113    0.11840000
opls_140-208    H    0.30471011    0.91311020    0.51694930    0.17670000
opls_140-209    H    0.19770023    0.89458019    0.71727887    0.12920000
opls_140-210    H    0.22487024    0.91919021    0.33738873    0.10760000
opls_140-211    H    0.25191003    0.93075013    0.74238028    0.13080000
opls_469-212    H    0.89796986    0.26796987    0.78383944    0.10950000
opls_469-213    H    0.89749009    0.24376006    0.20698028    0.07480000
opls_469-214    H    0.91177993    0.29737009    0.19905915    0.07500000
opls_469-215    H    0.10209988    0.72369000    0.94649014    0.07480000
opls_469-216    H    0.10073008    0.74880005    0.53069014    0.10190000
opls_469-217    H    0.12046008    0.77825022    0.94712113    0.07420000
