#======================================================================
# Crystal Data Generated By AuToFF
#----------------------------------------------------------------------

data_AuToFF_phase_1

_cell_length_a                         18.6680
_cell_length_b                         18.6680
_cell_length_c                         25.0000
_cell_angle_alpha                      90.00
_cell_angle_beta                       90.00
_cell_angle_gamma                      90.00
_symmetry_space_group_name_H-M_alt     'P 1'
_symmetry_space_group_IT_number        1

loop_
_space_group_symop_operation_xyz
   'x, y, z'

loop_
   _atom_site_label
   _atom_site_type_symbol
   _atom_site_fract_x
   _atom_site_fract_y
   _atom_site_fract_z
   _atom_site_charge
opls_543-0    C    0.53314013    0.66188987    0.50000000    0.38650000
opls_700-1    C    0.07288997    0.48109010    0.50000000    0.01770000
opls_521-2    C    0.71681005    0.57760017    0.50000000    0.10900000
opls_543-3    C    0.41291997    0.63812996    0.50000000    0.34070000
opls_700-4    C    0.26923988    0.49720002    0.50000000    -0.20140000
opls_700-5    C    0.14546979    0.46264999    0.50000000    -0.05460000
opls_521-6    C    0.19682987    0.52067013    0.50000000    0.14360000
opls_521-7    C    0.83368009    0.61082976    0.50000000    0.13250000
opls_543-8    C    0.46685987    0.33811013    0.50000000    0.38650000
opls_700-9    C    0.92711003    0.51890990    0.50000000    0.01770000
opls_521-10    C    0.28318995    0.42239983    0.50000000    0.10900000
opls_543-11    C    0.58708003    0.36187004    0.50000000    0.34070000
opls_700-12    C    0.73076012    0.50279998    0.50000000    -0.19110000
opls_700-13    C    0.85453021    0.53735001    0.50000000    -0.05470000
opls_521-14    C    0.80317977    0.47932987    0.50000000    0.14360000
opls_521-15    C    0.16631991    0.38917024    0.50000000    0.13250000
opls_543-16    C    0.33811013    0.53314013    0.50000000    0.38650000
opls_700-17    C    0.51890990    0.07288997    0.50000000    0.01770000
opls_521-18    C    0.42239983    0.71681005    0.50000000    0.10900000
opls_543-19    C    0.36187004    0.41291997    0.50000000    0.34070000
opls_700-20    C    0.50279998    0.26923988    0.50000000    -0.20140000
opls_700-21    C    0.53735001    0.14546979    0.50000000    -0.05460000
opls_521-22    C    0.47932987    0.19682987    0.50000000    0.14360000
opls_521-23    C    0.38917024    0.83368009    0.50000000    0.13250000
opls_543-24    C    0.66188987    0.46685987    0.50000000    0.38650000
opls_700-25    C    0.48109010    0.92711003    0.50000000    0.01770000
opls_521-26    C    0.57760017    0.28318995    0.50000000    0.10900000
opls_543-27    C    0.63812996    0.58708003    0.50000000    0.34070000
opls_700-28    C    0.49720002    0.73076012    0.50000000    -0.19110000
opls_700-29    C    0.46264999    0.85453021    0.50000000    -0.05470000
opls_521-30    C    0.52067013    0.80317977    0.50000000    0.14360000
opls_521-31    C    0.61082976    0.16631991    0.50000000    0.13250000
opls_543-32    C    0.96685987    0.16188987    0.50000000    0.38650000
opls_700-33    C    0.42711003    0.98109010    0.50000000    0.01770000
opls_521-34    C    0.78318995    0.07760017    0.50000000    0.10900000
opls_543-35    C    0.08708003    0.13812996    0.50000000    0.34070000
opls_700-36    C    0.23076012    0.99720002    0.50000000    -0.19110000
opls_700-37    C    0.35453021    0.96264999    0.50000000    -0.05470000
opls_521-38    C    0.30317977    0.02067013    0.50000000    0.14360000
opls_521-39    C    0.66631991    0.11082976    0.50000000    0.13250000
opls_543-40    C    0.03314013    0.83811013    0.50000000    0.38650000
opls_700-41    C    0.57288997    0.01890990    0.50000000    0.01770000
opls_521-42    C    0.21681005    0.92239983    0.50000000    0.10900000
opls_543-43    C    0.91291997    0.86187004    0.50000000    0.34070000
opls_700-44    C    0.76923988    0.00279998    0.50000000    -0.20140000
opls_700-45    C    0.64546979    0.03735001    0.50000000    -0.05460000
opls_521-46    C    0.69682987    0.97932987    0.50000000    0.14360000
opls_521-47    C    0.33368009    0.88917024    0.50000000    0.13250000
opls_543-48    C    0.16188987    0.03314013    0.50000000    0.38650000
opls_700-49    C    0.98109010    0.57288997    0.50000000    0.01770000
opls_521-50    C    0.07760017    0.21681005    0.50000000    0.10900000
opls_543-51    C    0.13812996    0.91291997    0.50000000    0.34070000
opls_700-52    C    0.99720002    0.76923988    0.50000000    -0.20140000
opls_700-53    C    0.96264999    0.64546979    0.50000000    -0.05460000
opls_521-54    C    0.02067013    0.69682987    0.50000000    0.14370000
opls_521-55    C    0.11082976    0.33368009    0.50000000    0.13250000
opls_543-56    C    0.83811013    0.96685987    0.50000000    0.38650000
opls_700-57    C    0.01890990    0.42711003    0.50000000    0.01770000
opls_521-58    C    0.92239983    0.78318995    0.50000000    0.10900000
opls_543-59    C    0.86187004    0.08708003    0.50000000    0.34080000
opls_700-60    C    0.00279998    0.23076012    0.50000000    -0.19110000
opls_700-61    C    0.03735001    0.35453021    0.50000000    -0.05470000
opls_521-62    C    0.97932987    0.30317977    0.50000000    0.14370000
opls_521-63    C    0.88917024    0.66631991    0.50000000    0.13250000
opls_531-64    C    0.10805014    0.60805014    0.50000000    0.43130000
opls_700-65    C    0.05365010    0.55365010    0.50000000    -0.05920000
opls_531-66    C    0.89194986    0.39194986    0.50000000    0.43130000
opls_700-67    C    0.94634990    0.44634990    0.50000000    -0.05920000
opls_531-68    C    0.39194986    0.10805014    0.50000000    0.43130000
opls_700-69    C    0.44634990    0.05365010    0.50000000    -0.05920000
opls_531-70    C    0.60805014    0.89194986    0.50000000    0.43130000
opls_700-71    C    0.55365010    0.94634990    0.50000000    -0.05920000
opls_520-72    N    0.17850975    0.59041997    0.50000000    -0.32120000
opls_520-73    N    0.63079012    0.23549979    0.50000000    -0.24000000
opls_750-74    N    0.60395007    0.64994000    0.50000000    -0.32980000
opls_542-75    N    0.48025980    0.61014999    0.50000000    -0.37350000
opls_520-76    N    0.82149025    0.40958003    0.50000000    -0.32060000
opls_520-77    N    0.36920988    0.76450021    0.50000000    -0.24020000
opls_750-78    N    0.39604993    0.35006000    0.50000000    -0.32970000
opls_542-79    N    0.51974020    0.38985001    0.50000000    -0.37350000
opls_520-80    N    0.40958003    0.17850975    0.50000000    -0.32120000
opls_520-81    N    0.76450021    0.63079012    0.50000000    -0.24010000
opls_750-82    N    0.35006000    0.60395007    0.50000000    -0.32980000
opls_542-83    N    0.38985001    0.48025980    0.50000000    -0.37350000
opls_520-84    N    0.59041997    0.82149025    0.50000000    -0.32060000
opls_520-85    N    0.23549979    0.36920988    0.50000000    -0.24020000
opls_750-86    N    0.64994000    0.39604993    0.50000000    -0.32970000
opls_542-87    N    0.61014999    0.51974020    0.50000000    -0.37350000
opls_520-88    N    0.32149025    0.09041997    0.50000000    -0.32060000
opls_520-89    N    0.86920988    0.73549979    0.50000000    -0.24020000
opls_750-90    N    0.89604993    0.14994000    0.50000000    -0.32980000
opls_542-91    N    0.01974020    0.11014999    0.50000000    -0.37350000
opls_520-92    N    0.67850975    0.90958003    0.50000000    -0.32120000
opls_520-93    N    0.13079012    0.26450021    0.50000000    -0.24020000
opls_750-94    N    0.10395007    0.85006000    0.50000000    -0.32980000
opls_542-95    N    0.98025980    0.88985001    0.50000000    -0.37350000
opls_520-96    N    0.09041997    0.67850975    0.50000000    -0.32120000
opls_520-97    N    0.73549979    0.13079012    0.50000000    -0.24020000
opls_750-98    N    0.14994000    0.10395007    0.50000000    -0.32980000
opls_542-99    N    0.11014999    0.98025980    0.50000000    -0.37350000
opls_520-100    N    0.90958003    0.32149025    0.50000000    -0.32050000
opls_520-101    N    0.26450021    0.86920988    0.50000000    -0.24020000
opls_750-102    N    0.85006000    0.89604993    0.50000000    -0.32980000
opls_542-103    N    0.88985001    0.01974020    0.50000000    -0.37350000
F2_Cd3f2-104    Cd    0.00000000    0.00000000    0.50000000    0.79660000
F2_Cd3f2-105    Cd    0.50000000    0.50000000    0.50000000    0.79650000
