#======================================================================
# Crystal Data Generated By AuToFF
#----------------------------------------------------------------------

data_AuToFF_phase_1

_cell_length_a                         27.2740
_cell_length_b                         27.1550
_cell_length_c                         3.3980
_cell_angle_alpha                      90.00
_cell_angle_beta                       90.00
_cell_angle_gamma                      90.00
_symmetry_space_group_name_H-M_alt     'P 1'
_symmetry_space_group_IT_number        1

loop_
_space_group_symop_operation_xyz
   'x, y, z'

loop_
   _atom_site_label
   _atom_site_type_symbol
   _atom_site_fract_x
   _atom_site_fract_y
   _atom_site_fract_z
   _atom_site_charge
opls_520-0    N    0.12591002    0.50000000    0.50000000    -0.24950000
opls_520-1    N    0.62591002    0.00000000    0.50000000    -0.24940000
opls_520-2    N    0.87408998    0.50000000    0.50000000    -0.24950000
opls_520-3    N    0.37408998    0.00000000    0.50000000    -0.24950000
opls_700-4    C    0.02608015    0.50000000    0.50000000    0.07940000
opls_700-5    C    0.52608015    0.00000000    0.50000000    0.07940000
opls_700-6    C    0.97391985    0.50000000    0.50000000    0.07940000
opls_700-7    C    0.47391985    0.00000000    0.50000000    0.07940000
opls_521-8    C    0.10124001    0.54219002    0.50000000    0.22850000
opls_522-9    C    0.05165982    0.54355993    0.50000000    -0.20870000
opls_142-10    C    0.12539012    0.58650009    0.50000000    -0.18730000
opls_142-11    C    0.17298013    0.58886982    0.50000000    -0.18200000
opls_145-12    C    0.16675002    0.67944983    0.50000000    -0.18210000
opls_145-13    C    0.18856017    0.72322003    0.50000000    -0.18200000
opls_700-14    C    0.23913984    0.72595986    0.50000000    0.09890000
opls_145-15    C    0.26767984    0.68219002    0.50000000    -0.16020000
opls_145-16    C    0.24528012    0.63744983    0.50000000    -0.18170000
opls_700-17    C    0.19489001    0.63599006    0.50000000    0.11900000
opls_521-18    C    0.60124001    0.04219002    0.50000000    0.22850000
opls_522-19    C    0.55165982    0.04355993    0.50000000    -0.20880000
opls_142-20    C    0.62539012    0.08650009    0.50000000    -0.18730000
opls_142-21    C    0.67298013    0.08886982    0.50000000    -0.18210000
opls_145-22    C    0.66675002    0.17944983    0.50000000    -0.18210000
opls_145-23    C    0.68856017    0.22322003    0.50000000    -0.18200000
opls_700-24    C    0.73913984    0.22595986    0.50000000    0.09890000
opls_145-25    C    0.76767984    0.18219002    0.50000000    -0.16020000
opls_145-26    C    0.74528012    0.13744983    0.50000000    -0.18170000
opls_700-27    C    0.69489001    0.13599006    0.50000000    0.11900000
opls_521-28    C    0.89875999    0.45780998    0.50000000    0.22850000
opls_522-29    C    0.94834018    0.45644007    0.50000000    -0.20880000
opls_142-30    C    0.87460988    0.41349991    0.50000000    -0.18730000
opls_142-31    C    0.82701987    0.41113018    0.50000000    -0.18210000
opls_145-32    C    0.83324998    0.32055017    0.50000000    -0.18210000
opls_145-33    C    0.81143983    0.27677997    0.50000000    -0.18200000
opls_700-34    C    0.76086016    0.27404014    0.50000000    0.09890000
opls_145-35    C    0.73232016    0.31780998    0.50000000    -0.16020000
opls_145-36    C    0.75471988    0.36255017    0.50000000    -0.18170000
opls_700-37    C    0.80510999    0.36400994    0.50000000    0.11900000
opls_521-38    C    0.39875999    0.95780998    0.50000000    0.22850000
opls_522-39    C    0.44834018    0.95644007    0.50000000    -0.20880000
opls_142-40    C    0.37460988    0.91349991    0.50000000    -0.18730000
opls_142-41    C    0.32701987    0.91113018    0.50000000    -0.18210000
opls_145-42    C    0.33324998    0.82055017    0.50000000    -0.18210000
opls_145-43    C    0.31143983    0.77677997    0.50000000    -0.18200000
opls_700-44    C    0.26086016    0.77404014    0.50000000    0.09890000
opls_145-45    C    0.23232016    0.81780998    0.50000000    -0.16020000
opls_145-46    C    0.25471988    0.86255017    0.50000000    -0.18170000
opls_700-47    C    0.30510999    0.86400994    0.50000000    0.11900000
opls_521-48    C    0.89875999    0.54219002    0.50000000    0.22850000
opls_522-49    C    0.94834018    0.54355993    0.50000000    -0.20870000
opls_142-50    C    0.87460988    0.58650009    0.50000000    -0.18730000
opls_142-51    C    0.82701987    0.58886982    0.50000000    -0.18210000
opls_145-52    C    0.83324998    0.67944983    0.50000000    -0.18210000
opls_145-53    C    0.81143983    0.72322003    0.50000000    -0.18200000
opls_700-54    C    0.76086016    0.72595986    0.50000000    0.09890000
opls_145-55    C    0.73232016    0.68219002    0.50000000    -0.16010000
opls_145-56    C    0.75471988    0.63744983    0.50000000    -0.18170000
opls_700-57    C    0.80510999    0.63599006    0.50000000    0.11910000
opls_521-58    C    0.39875999    0.04219002    0.50000000    0.22850000
opls_522-59    C    0.44834018    0.04355993    0.50000000    -0.20880000
opls_142-60    C    0.37460988    0.08650009    0.50000000    -0.18730000
opls_142-61    C    0.32701987    0.08886982    0.50000000    -0.18210000
opls_145-62    C    0.33324998    0.17944983    0.50000000    -0.18210000
opls_145-63    C    0.31143983    0.22322003    0.50000000    -0.18200000
opls_700-64    C    0.26086016    0.22595986    0.50000000    0.09890000
opls_145-65    C    0.23232016    0.18219002    0.50000000    -0.16020000
opls_145-66    C    0.25471988    0.13744983    0.50000000    -0.18170000
opls_700-67    C    0.30510999    0.13599006    0.50000000    0.11900000
opls_521-68    C    0.10124001    0.45780998    0.50000000    0.22860000
opls_522-69    C    0.05165982    0.45644007    0.50000000    -0.20880000
opls_142-70    C    0.12539012    0.41349991    0.50000000    -0.18720000
opls_142-71    C    0.17298013    0.41113018    0.50000000    -0.18200000
opls_145-72    C    0.16675002    0.32055017    0.50000000    -0.18210000
opls_145-73    C    0.18856017    0.27677997    0.50000000    -0.18190000
opls_700-74    C    0.23913984    0.27404014    0.50000000    0.09890000
opls_145-75    C    0.26767984    0.31780998    0.50000000    -0.16020000
opls_145-76    C    0.24528012    0.36255017    0.50000000    -0.18170000
opls_700-77    C    0.19489001    0.36400994    0.50000000    0.11900000
opls_521-78    C    0.60124001    0.95780998    0.50000000    0.22860000
opls_522-79    C    0.55165982    0.95644007    0.50000000    -0.20880000
opls_142-80    C    0.62539012    0.91349991    0.50000000    -0.18730000
opls_142-81    C    0.67298013    0.91113018    0.50000000    -0.18210000
opls_145-82    C    0.66675002    0.82055017    0.50000000    -0.18210000
opls_145-83    C    0.68856017    0.77677997    0.50000000    -0.18190000
opls_700-84    C    0.73913984    0.77404014    0.50000000    0.09890000
opls_145-85    C    0.76767984    0.81780998    0.50000000    -0.16020000
opls_145-86    C    0.74528012    0.86255017    0.50000000    -0.18170000
opls_700-87    C    0.69489001    0.86400994    0.50000000    0.11900000
opls_525-88    H    0.03532998    0.57927012    0.50000000    0.11580000
opls_144-89    H    0.10149996    0.61741005    0.50000000    0.25190000
opls_144-90    H    0.19580003    0.55610017    0.50000000    0.12010000
opls_146-91    H    0.12759001    0.68309004    0.50000000    0.11290000
opls_146-92    H    0.16362983    0.75372013    0.50000000    0.10060000
opls_146-93    H    0.30690988    0.67988989    0.50000000    0.10060000
opls_146-94    H    0.26729009    0.60415982    0.50000000    0.12070000
opls_525-95    H    0.53532998    0.07927012    0.50000000    0.11590000
opls_144-96    H    0.60149996    0.11741005    0.50000000    0.25190000
opls_144-97    H    0.69580003    0.05610017    0.50000000    0.12010000
opls_146-98    H    0.62759001    0.18309004    0.50000000    0.11290000
opls_146-99    H    0.66362983    0.25372013    0.50000000    0.10060000
opls_146-100    H    0.80690988    0.17988989    0.50000000    0.10060000
opls_146-101    H    0.76729009    0.10415982    0.50000000    0.12070000
opls_525-102    H    0.96467002    0.42072988    0.50000000    0.11580000
opls_144-103    H    0.89850004    0.38258995    0.50000000    0.25190000
opls_144-104    H    0.80419997    0.44389983    0.50000000    0.12010000
opls_146-105    H    0.87240999    0.31690996    0.50000000    0.11300000
opls_146-106    H    0.83637017    0.24627987    0.50000000    0.10060000
opls_146-107    H    0.69309012    0.32011011    0.50000000    0.10060000
opls_146-108    H    0.73270991    0.39584018    0.50000000    0.12080000
opls_525-109    H    0.46467002    0.92072988    0.50000000    0.11580000
opls_144-110    H    0.39850004    0.88258995    0.50000000    0.25190000
opls_144-111    H    0.30419997    0.94389983    0.50000000    0.12010000
opls_146-112    H    0.37240999    0.81690996    0.50000000    0.11290000
opls_146-113    H    0.33637017    0.74627987    0.50000000    0.10060000
opls_146-114    H    0.19309012    0.82011011    0.50000000    0.10060000
opls_146-115    H    0.23270991    0.89584018    0.50000000    0.12080000
opls_525-116    H    0.96467002    0.57927012    0.50000000    0.11580000
opls_144-117    H    0.89850004    0.61741005    0.50000000    0.25190000
opls_144-118    H    0.80419997    0.55610017    0.50000000    0.12010000
opls_146-119    H    0.87240999    0.68309004    0.50000000    0.11290000
opls_146-120    H    0.83637017    0.75372013    0.50000000    0.10060000
opls_146-121    H    0.69309012    0.67988989    0.50000000    0.10070000
opls_146-122    H    0.73270991    0.60415982    0.50000000    0.12070000
opls_525-123    H    0.46467002    0.07927012    0.50000000    0.11580000
opls_144-124    H    0.39850004    0.11741005    0.50000000    0.25200000
opls_144-125    H    0.30419997    0.05610017    0.50000000    0.12010000
opls_146-126    H    0.37240999    0.18309004    0.50000000    0.11290000
opls_146-127    H    0.33637017    0.25372013    0.50000000    0.10060000
opls_146-128    H    0.19309012    0.17988989    0.50000000    0.10060000
opls_146-129    H    0.23270991    0.10415982    0.50000000    0.12070000
opls_525-130    H    0.03532998    0.42072988    0.50000000    0.11580000
opls_144-131    H    0.10149996    0.38258995    0.50000000    0.25200000
opls_144-132    H    0.19580003    0.44389983    0.50000000    0.12010000
opls_146-133    H    0.12759001    0.31690996    0.50000000    0.11290000
opls_146-134    H    0.16362983    0.24627987    0.50000000    0.10060000
opls_146-135    H    0.30690988    0.32011011    0.50000000    0.10060000
opls_146-136    H    0.26729009    0.39584018    0.50000000    0.12070000
opls_525-137    H    0.53532998    0.92072988    0.50000000    0.11590000
opls_144-138    H    0.60149996    0.88258995    0.50000000    0.25190000
opls_144-139    H    0.69580003    0.94389983    0.50000000    0.12010000
opls_146-140    H    0.62759001    0.81690996    0.50000000    0.11290000
opls_146-141    H    0.66362983    0.74627987    0.50000000    0.10060000
opls_146-142    H    0.80690988    0.82011011    0.50000000    0.10060000
opls_146-143    H    0.76729009    0.89584018    0.50000000    0.12070000
