#======================================================================
# Crystal Data Generated By AuToFF
#----------------------------------------------------------------------

data_AuToFF_phase_1

_cell_length_a                         33.6929
_cell_length_b                         34.0311
_cell_length_c                         4.2774
_cell_angle_alpha                      90.00
_cell_angle_beta                       90.00
_cell_angle_gamma                      90.00
_symmetry_space_group_name_H-M_alt     'P 1'
_symmetry_space_group_IT_number        1

loop_
_space_group_symop_operation_xyz
   'x, y, z'

loop_
   _atom_site_label
   _atom_site_type_symbol
   _atom_site_fract_x
   _atom_site_fract_y
   _atom_site_fract_z
   _atom_site_charge
opls_543-0    C    0.42229995    0.46938007    0.35255061    0.18240000
opls_716-1    C    0.40382989    0.43354990    0.47177959    -0.20040000
opls_716-2    C    0.43052987    0.40610001    0.45813111    -0.20040000
opls_543-3    C    0.46669001    0.42414997    0.33611072    0.18240000
opls_700-4    C    0.40093996    0.50374011    0.29906018    -0.07070000
opls_700-5    C    0.50089989    0.40264993    0.27281994    -0.07110000
opls_543-6    C    0.53589005    0.42096994    0.17675925    0.20360000
opls_716-7    C    0.57139991    0.40109988    0.13965025    -0.20070000
opls_716-8    C    0.59898999    0.42817011    0.06247019    -0.20070000
opls_543-9    C    0.57944997    0.46375991    0.03669051    0.20370000
opls_700-10    C    0.59815006    0.49827011    0.93979988    -0.07070000
opls_543-11    C    0.57672002    0.53256991    0.88536027    0.18210000
opls_716-12    C    0.59503990    0.56829988    0.76261046    -0.20040000
opls_716-13    C    0.56835001    0.59574007    0.77617945    -0.20040000
opls_543-14    C    0.53232996    0.57778003    0.90147052    0.18170000
opls_700-15    C    0.49816015    0.59931004    0.96478001    -0.07130000
opls_543-16    C    0.46321005    0.58102001    0.06186936    0.20360000
opls_716-17    C    0.42770999    0.60090006    0.09772993    -0.20070000
opls_716-18    C    0.40013000    0.57386009    0.17573994    -0.20070000
opls_543-19    C    0.41968011    0.53826999    0.20284051    0.20360000
opls_700-20    C    0.64245998    0.49956011    0.90374059    0.06750000
opls_700-21    C    0.49887988    0.35864988    0.29148081    0.06570000
opls_700-22    C    0.35658996    0.50252005    0.33196100    0.06760000
opls_700-23    C    0.50008993    0.64327013    0.94156029    0.06210000
opls_145-24    C    0.52779992    0.66385013    0.12318932    -0.12630000
opls_145-25    C    0.52955994    0.70474008    0.11734932    -0.17150000
opls_145-26    C    0.50249993    0.72637999    0.93511947    0.18850000
opls_145-27    C    0.47558002    0.70593986    0.74548090    -0.16900000
opls_145-28    C    0.47483001    0.66477986    0.74391920    -0.13170000
opls_145-29    C    0.66277999    0.47429998    0.69823023    -0.13200000
opls_145-30    C    0.70427004    0.47527996    0.67854070    -0.17400000
opls_145-31    C    0.72581998    0.50316005    0.85087904    0.19630000
opls_145-32    C    0.70562997    0.52960997    0.04281105    -0.17040000
opls_145-33    C    0.66455989    0.52712989    0.07576098    -0.12030000
opls_145-34    C    0.33609010    0.52795002    0.53477112    -0.13170000
opls_145-35    C    0.29454010    0.52825004    0.54160004    -0.17620000
opls_145-36    C    0.27292991    0.50154006    0.35767990    0.18700000
opls_145-37    C    0.29328998    0.47435992    0.17325011    -0.15710000
opls_145-38    C    0.33456989    0.47548008    0.15425960    -0.12030000
opls_145-39    C    0.47132007    0.33846011    0.10583064    -0.12600000
opls_145-40    C    0.47015989    0.29755988    0.10043017    -0.17030000
opls_145-41    C    0.49766004    0.27554002    0.27571889    0.18900000
opls_145-42    C    0.52415999    0.29554995    0.47198064    -0.16900000
opls_145-43    C    0.52427989    0.33667998    0.48485996    -0.13170000
opls_142-44    C    0.52086998    0.79175989    0.12338103    0.06930000
opls_142-45    C    0.79184012    0.47596992    0.84239959    0.06960000
opls_142-46    C    0.48047007    0.21080012    0.06697994    0.06990000
opls_142-47    C    0.20844006    0.53267012    0.36467948    0.06910000
opls_700-48    C    0.48685005    0.16791993    0.06042923    0.05240000
opls_700-49    C    0.16519000    0.52956002    0.32156918    0.05290000
opls_700-50    C    0.51736004    0.83486987    0.10187965    0.05240000
opls_700-51    C    0.83498007    0.48244988    0.84705896    0.05240000
opls_145-52    C    0.85922999    0.45876008    0.03508907    -0.12360000
opls_145-53    C    0.89953996    0.46760992    0.06911909    -0.13170000
opls_700-54    C    0.91626010    0.49977991    0.91042923    0.07230000
opls_145-55    C    0.89269995    0.52090999    0.70163885    -0.13690000
opls_145-56    C    0.85208011    0.51339010    0.67711928    -0.11930000
opls_145-57    C    0.54286986    0.85843008    0.27927012    -0.12030000
opls_145-58    C    0.54010014    0.89932003    0.26744050    -0.13200000
opls_700-59    C    0.51205002    0.91812989    0.07264927    0.07880000
opls_145-60    C    0.48605997    0.89384005    0.89819984    -0.13530000
opls_145-61    C    0.48871988    0.85288986    0.91275074    -0.11760000
opls_145-62    C    0.14426007    0.56117992    0.19180109    -0.11910000
opls_145-63    C    0.10386995    0.55757998    0.12343947    -0.12800000
opls_700-64    C    0.08346002    0.52254996    0.19058073    0.06450000
opls_145-65    C    0.10432999    0.49125006    0.32826951    -0.12800000
opls_145-66    C    0.14485990    0.49463990    0.39192033    -0.12570000
opls_145-67    C    0.46305008    0.14464005    0.86655912    -0.11760000
opls_145-68    C    0.46900000    0.10409008    0.84870950    -0.13270000
opls_700-69    C    0.49891995    0.08539013    0.02685977    0.08380000
opls_145-70    C    0.52169003    0.10913987    0.22758919    -0.11210000
opls_145-71    C    0.51636992    0.14983001    0.24066021    -0.11870000
opls_700-72    C    0.04090001    0.51805995    0.10792070    -0.00030000
opls_700-73    C    0.50408988    0.04387986    0.01712956    0.00670000
opls_700-74    C    0.50956997    0.95986994    0.05385982    0.00310000
opls_700-75    C    0.95888006    0.50905995    0.94973115    0.00120000
opls_145-76    C    0.98653010    0.47868009    0.89449899    -0.13270000
opls_624-77    C    0.97387996    0.54474995    0.07444008    0.06740000
opls_624-78    C    0.54231010    0.98496992    0.10962033    0.07860000
opls_145-79    C    0.47360008    0.97854991    0.97282929    -0.13250000
opls_624-80    C    0.01317993    0.54805986    0.15873895    0.09100000
opls_145-81    C    0.02688014    0.48319008    0.96950952    -0.13210000
opls_145-82    C    0.47089001    0.01952009    0.95609950    -0.12940000
opls_624-83    C    0.54035004    0.02403008    0.08633983    0.06420000
opls_627-84    C    0.98447002    0.60103993    0.28564081    0.06830000
opls_627-85    C    0.60264002    0.00491991    0.17483050    0.08580000
opls_905-86    C    0.59738995    0.07358005    0.96600973    -0.32820000
opls_905-87    C    0.91665989    0.59460993    0.06672979    -0.32820000
opls_542-88    N    0.46113988    0.46312990    0.28306915    -0.39220000
opls_542-89    N    0.54033995    0.45985995    0.11081966    -0.39180000
opls_542-90    N    0.53794004    0.53886004    0.95628887    -0.39200000
opls_542-91    N    0.45879013    0.54215997    0.12899892    -0.39190000
opls_750-92    N    0.76810010    0.50591988    0.83068920    -0.35490000
opls_750-93    N    0.23042006    0.50141988    0.34925890    -0.35490000
opls_750-94    N    0.50135014    0.76869011    0.93544910    -0.33620000
opls_750-95    N    0.50044995    0.23338006    0.25562024    -0.33730000
opls_559-96    N    0.02014994    0.58299996    0.29510918    -0.32750000
opls_557-97    N    0.95566989    0.57900009    0.15134895    0.04140000
opls_559-98    N    0.58214995    0.97290008    0.16405994    -0.36780000
opls_557-99    N    0.57976013    0.03960995    0.12232898    -0.09900000
opls_547-100    H    0.37360008    0.42892002    0.54682985    0.12180000
opls_547-101    H    0.42508006    0.37575012    0.51705008    0.11600000
opls_547-102    H    0.57768996    0.37018991    0.16571983    0.11530000
opls_547-103    H    0.62999000    0.42151003    0.02854070    0.12340000
opls_547-104    H    0.62515011    0.57288010    0.68449993    0.11310000
opls_547-105    H    0.57367012    0.62601003    0.71408098    0.11530000
opls_547-106    H    0.42141994    0.63179004    0.06978071    0.12240000
opls_547-107    H    0.36912999    0.58056013    0.20864076    0.11300000
opls_146-108    H    0.54827011    0.64806985    0.27014074    0.12650000
opls_146-109    H    0.55186998    0.71873992    0.25994062    0.11600000
opls_146-110    H    0.45511992    0.72199988    0.59777902    0.11200000
opls_146-111    H    0.45403987    0.64976007    0.59300977    0.12000000
opls_146-112    H    0.64658993    0.45362007    0.55525085    0.11950000
opls_146-113    H    0.71941002    0.45527003    0.52201103    0.11480000
opls_146-114    H    0.72196012    0.55136008    0.17558096    0.11200000
opls_146-115    H    0.64983988    0.54709986    0.23367934    0.11600000
opls_146-116    H    0.35221011    0.54814008    0.68273016    0.12000000
opls_146-117    H    0.27940011    0.54870986    0.69434002    0.11660000
opls_146-118    H    0.27699011    0.45344993    0.03197971    0.11200000
opls_146-119    H    0.34944009    0.45531000    0.99877963    0.11910000
opls_146-120    H    0.45072998    0.35456009    0.96230888    0.09700000
opls_146-121    H    0.44826002    0.28392999    0.95194978    0.11050000
opls_146-122    H    0.54498010    0.27917993    0.61417917    0.11470000
opls_146-123    H    0.54491006    0.35137007    0.63929022    0.11730000
opls_144-124    H    0.54000012    0.78004002    0.30299949    0.12020000
opls_144-125    H    0.78021987    0.44675988    0.88586992    0.11670000
opls_144-126    H    0.45914006    0.22280003    0.90450975    0.11340000
opls_144-127    H    0.22198000    0.56154988    0.37256979    0.10360000
opls_146-128    H    0.84663000    0.43463009    0.16711086    0.11180000
opls_146-129    H    0.91750013    0.44997987    0.22549913    0.11180000
opls_146-130    H    0.90591015    0.54371002    0.56409034    0.24250000
opls_146-131    H    0.83416002    0.53139011    0.52324075    0.11200000
opls_146-132    H    0.56455989    0.84513989    0.43349932    0.11300000
opls_146-133    H    0.55860997    0.91565010    0.42725020    0.11310000
opls_146-134    H    0.46471007    0.90607004    0.73644036    0.11720000
opls_146-135    H    0.46863998    0.83538998    0.77235003    0.11200000
opls_146-136    H    0.15950987    0.58819991    0.13255015    0.11300000
opls_146-137    H    0.08891992    0.58182986    0.00963903    0.11660000
opls_146-138    H    0.08930012    0.46405993    0.38544910    0.11470000
opls_146-139    H    0.16035010    0.46992986    0.49470940    0.11630000
opls_146-140    H    0.44025002    0.15794993    0.72260953    0.11330000
opls_146-141    H    0.45110008    0.08796013    0.68268107    0.11730000
opls_146-142    H    0.54267012    0.09613001    0.38477112    0.09460000
opls_146-143    H    0.53478003    0.16690997    0.39746107    0.11470000
opls_146-144    H    0.97673011    0.45097014    0.79660074    0.11180000
opls_146-145    H    0.44651010    0.96203003    0.93957077    0.11720000
opls_146-146    H    0.04706006    0.45922994    0.92021088    0.11650000
opls_146-147    H    0.44169009    0.03164987    0.91504886    0.11900000
opls_563-148    H    0.63450994    0.00501012    0.20541918    0.08640000
opls_140-149    H    0.60728996    0.09523994    0.14377893    0.14760000
opls_140-150    H    0.62353997    0.06448014    0.82498948    0.16060000
opls_140-151    H    0.57601008    0.08761985    0.80705101    0.14650000
opls_563-152    H    0.97992010    0.63075011    0.36874036    0.09580000
opls_140-153    H    0.91587011    0.60111986    0.81298920    0.13850000
opls_140-154    H    0.89250999    0.57423004    0.13107963    0.09740000
opls_140-155    H    0.91099994    0.62263988    0.19211904    0.14820000
F2_Co4+2-156    Co    0.49955005    0.50099997    0.11989059    0.67370000
