#======================================================================
# Crystal Data Generated By AuToFF
#----------------------------------------------------------------------

data_AuToFF_phase_1

_cell_length_a                         23.3451
_cell_length_b                         23.3451
_cell_length_c                         4.1355
_cell_angle_alpha                      90.00
_cell_angle_beta                       90.00
_cell_angle_gamma                      120.00
_symmetry_space_group_name_H-M_alt     'P 1'
_symmetry_space_group_IT_number        1

loop_
_space_group_symop_operation_xyz
   'x, y, z'

loop_
   _atom_site_label
   _atom_site_type_symbol
   _atom_site_fract_x
   _atom_site_fract_y
   _atom_site_fract_z
   _atom_site_charge
opls_750-0    N    0.49242982    0.98422996    0.05567888    -0.33290000
opls_520-1    N    0.59853992    0.29799010    0.12013058    -0.46090000
opls_750-2    N    0.01576995    0.50820009    0.05567888    -0.33290000
opls_520-3    N    0.70200994    0.30054977    0.12013058    -0.46090000
opls_750-4    N    0.49179980    0.50756995    0.05567888    -0.33290000
opls_520-5    N    0.69945014    0.40146012    0.12013058    -0.46090000
opls_239-6    N    0.33332992    0.66667013    0.90430903    -0.15360000
opls_142-7    C    0.50506990    0.94559007    0.88801112    0.10710000
opls_700-8    C    0.46089977    0.87428978    0.89695079    0.05350000
opls_145-9    C    0.40117972    0.84646976    0.06008947    -0.21290000
opls_145-10    C    0.35969992    0.77885985    0.06155967    -0.22010000
opls_916-11    C    0.37675989    0.73713005    0.90311933    0.13130000
opls_145-12    C    0.43697986    0.76566976    0.74240116    -0.22010000
opls_145-13    C    0.47840974    0.83326977    0.73785999    -0.21160000
opls_145-14    C    0.52399983    0.46977982    0.07040019    0.20340000
opls_145-15    C    0.50143983    0.41030991    0.90715028    -0.21980000
opls_523-16    C    0.53602010    0.37677996    0.92464998    -0.21270000
opls_700-17    C    0.59340990    0.40146012    0.10739935    0.04330000
opls_523-18    C    0.61512980    0.46034985    0.27399105    -0.21270000
opls_145-19    C    0.58068991    0.49399009    0.25441905    -0.22000000
opls_531-20    C    0.63095982    0.36647005    0.11912949    0.29790000
opls_142-21    C    0.05441009    0.55948005    0.88801112    0.10710000
opls_700-22    C    0.12571013    0.58661008    0.89695079    0.05350000
opls_145-23    C    0.15352983    0.55470992    0.06008947    -0.21290000
opls_145-24    C    0.22113985    0.58083982    0.06155967    -0.22010000
opls_916-25    C    0.26286992    0.63963012    0.90311933    0.13130000
opls_145-26    C    0.23433019    0.67131018    0.74240116    -0.22000000
opls_145-27    C    0.16673012    0.64514021    0.73785999    -0.21160000
opls_145-28    C    0.53021986    0.05421999    0.07040019    0.20340000
opls_145-29    C    0.58968998    0.09113019    0.90715028    -0.21970000
opls_523-30    C    0.62322024    0.15924016    0.92464998    -0.21260000
opls_700-31    C    0.59854000    0.19195002    0.10739935    0.04330000
opls_523-32    C    0.53965025    0.15478015    0.27399105    -0.21270000
opls_145-33    C    0.50600976    0.08669986    0.25441905    -0.22000000
opls_531-34    C    0.63352998    0.26448983    0.11912949    0.29790000
opls_142-35    C    0.44052001    0.49492987    0.88801112    0.10710000
opls_700-36    C    0.41339010    0.53910013    0.89695079    0.05350000
opls_145-37    C    0.44528978    0.59881983    0.06008947    -0.21290000
opls_145-38    C    0.41915999    0.64029984    0.06155967    -0.22000000
opls_916-39    C    0.36036976    0.62323983    0.90311933    0.12970000
opls_145-40    C    0.32868995    0.56302006    0.74240116    -0.21990000
opls_145-41    C    0.35486014    0.52159001    0.73785999    -0.21150000
opls_145-42    C    0.94577989    0.47600019    0.07040019    0.20340000
opls_145-43    C    0.90886976    0.49855991    0.90715028    -0.21980000
opls_523-44    C    0.84076009    0.46397988    0.92464998    -0.21260000
opls_700-45    C    0.80805010    0.40658985    0.10739935    0.04330000
opls_523-46    C    0.84521995    0.38487000    0.27399105    -0.21270000
opls_145-47    C    0.91329990    0.41931005    0.25441905    -0.22000000
opls_531-48    C    0.73551020    0.36904011    0.11912949    0.29800000
opls_144-49    H    0.54772984    0.96440006    0.73729900    0.10620000
opls_146-50    H    0.38659011    0.87716008    0.18555918    0.21950000
opls_146-51    H    0.31383020    0.75930001    0.18327893    0.21850000
opls_146-52    H    0.45238010    0.73566004    0.62221013    0.21880000
opls_146-53    H    0.52418011    0.85353989    0.60939911    0.21960000
opls_146-54    H    0.45813993    0.38969999    0.76110990    0.21910000
opls_526-55    H    0.51879007    0.33249000    0.78662072    0.21950000
opls_526-56    H    0.65806006    0.47987011    0.42421956    0.21950000
opls_146-57    H    0.59783979    0.53912981    0.38492081    0.09790000
opls_144-58    H    0.03560000    0.58332975    0.73729900    0.10620000
opls_146-59    H    0.12283990    0.50943022    0.18555918    0.21960000
opls_146-60    H    0.24070009    0.55452987    0.18327893    0.21850000
opls_146-61    H    0.26433982    0.71671996    0.62221013    0.21880000
opls_146-62    H    0.14645979    0.67063997    0.60939911    0.21950000
opls_146-63    H    0.61030015    0.06843989    0.76110990    0.21910000
opls_526-64    H    0.66750991    0.18629995    0.78662072    0.21950000
opls_526-65    H    0.52013027    0.17819013    0.42421956    0.21950000
opls_146-66    H    0.46087005    0.05871017    0.38492081    0.09790000
opls_144-67    H    0.41667015    0.45227019    0.73729900    0.10630000
opls_146-68    H    0.49057024    0.61341020    0.18555918    0.21950000
opls_146-69    H    0.44547014    0.68617012    0.18327893    0.21850000
opls_146-70    H    0.28328008    0.54762000    0.62221013    0.21880000
opls_146-71    H    0.32936010    0.47582015    0.60939911    0.21950000
opls_146-72    H    0.93155992    0.54186013    0.76110990    0.21920000
opls_526-73    H    0.81370002    0.48121004    0.78662072    0.21950000
opls_526-74    H    0.82180967    0.34193976    0.42421956    0.21950000
opls_146-75    H    0.94129016    0.40216002    0.38492081    0.09790000
