#======================================================================
# Crystal Data Generated By AuToFF
#----------------------------------------------------------------------

data_AuToFF_phase_1

_cell_length_a                         30.2367
_cell_length_b                         30.2269
_cell_length_c                         7.1426
_cell_angle_alpha                      89.97
_cell_angle_beta                       90.01
_cell_angle_gamma                      59.98
_symmetry_space_group_name_H-M_alt     'P 1'
_symmetry_space_group_IT_number        1

loop_
_space_group_symop_operation_xyz
   'x, y, z'

loop_
   _atom_site_label
   _atom_site_type_symbol
   _atom_site_fract_x
   _atom_site_fract_y
   _atom_site_fract_z
   _atom_site_charge
opls_145-0    C    0.02253003    0.03037992    0.00030941    -0.17400000
opls_700-1    C    0.96912002    0.05340986    0.00014981    0.06230000
opls_145-2    C    0.94673999    0.02249991    0.00022961    -0.17700000
opls_700-3    C    0.97710009    0.96909003    0.00014981    0.06130000
opls_145-4    C    0.03042979    0.94670010    0.00020021    -0.17930000
opls_700-5    C    0.05346006    0.97705980    0.00035981    0.06220000
opls_142-6    C    0.10840002    0.95693015    0.99920897    0.07630000
opls_142-7    C    0.93405990    0.10831030    0.99828914    0.05660000
opls_142-8    C    0.95713004    0.93413999    0.99840954    0.07950000
opls_145-9    C    0.91228008    0.19537996    0.00000000    0.17270000
opls_700-10    C    0.93442983    0.22745011    0.00071963    0.07920000
opls_700-11    C    0.85758986    0.21953011    0.00007980    0.08010000
opls_145-12    C    0.90327988    0.28045011    0.00040041    -0.17070000
opls_145-13    C    0.82859985    0.27271996    0.99993000    -0.17240000
opls_700-14    C    0.84970974    0.30485031    0.99972979    0.06510000
opls_145-15    C    0.19532998    0.89135005    0.99994960    0.17070000
opls_700-16    C    0.22733015    0.83708983    0.00082043    0.07900000
opls_700-17    C    0.21959999    0.92177019    0.99982919    0.08000000
opls_145-18    C    0.28034994    0.81509008    0.00051942    -0.17070000
opls_145-19    C    0.27275005    0.89745002    0.99971019    -0.17770000
opls_700-20    C    0.30478015    0.84418992    0.99964019    0.07110000
opls_145-21    C    0.89185004    0.91240002    0.99993000    0.16780000
opls_700-22    C    0.83759997    0.93472979    0.00065942    0.08010000
opls_700-23    C    0.92229994    0.85775980    0.00005040    0.08000000
opls_145-24    C    0.81567002    0.90366975    0.00040041    -0.17370000
opls_145-25    C    0.89804004    0.82881990    0.99989920    -0.16780000
opls_700-26    C    0.84481983    0.85003001    0.99969899    0.06430000
opls_700-27    C    0.81706989    0.36114030    0.99985999    0.06380000
opls_145-28    C    0.83874986    0.39270016    0.99983899    -0.16910000
opls_145-29    C    0.76339005    0.38617989    0.00011060    -0.17410000
opls_700-30    C    0.81050998    0.44588994    0.99997900    0.07900000
opls_700-31    C    0.73308011    0.43926995    0.00027021    0.07950000
opls_145-32    C    0.75592994    0.47071982    0.00004060    0.16930000
opls_700-33    C    0.36100001    0.82058991    0.99981939    0.07160000
opls_145-34    C    0.38573985    0.84949994    0.00020021    -0.17380000
opls_700-35    C    0.44600007    0.74276998    0.00002940    0.07940000
opls_700-36    C    0.43877015    0.82707981    0.00034021    0.08010000
opls_145-37    C    0.47052011    0.77279005    0.00004060    0.16930000
opls_700-38    C    0.82116986    0.81739993    0.99975919    0.06380000
opls_145-39    C    0.76791996    0.83900007    0.99983899    -0.17520000
opls_145-40    C    0.84988005    0.76374001    0.00035981    -0.17040000
opls_700-41    C    0.74314009    0.81062976    0.00014001    0.07900000
opls_700-42    C    0.82726005    0.73330991    0.00060062    0.07950000
opls_145-43    C    0.77295985    0.75603007    0.00007980    0.16930000
opls_145-44    C    0.64486999    0.63523989    0.00005040    -0.17090000
opls_700-45    C    0.61293016    0.68850995    0.00002940    0.05360000
opls_145-46    C    0.63507995    0.71975001    0.00000000    -0.17190000
opls_142-47    C    0.55793979    0.70767024    0.99960939    0.07800000
opls_700-48    C    0.68832972    0.69839018    0.99999020    0.05360000
opls_142-49    C    0.70755990    0.73416000    0.99910957    0.08040000
opls_145-50    C    0.71961012    0.64496994    0.00009940    -0.17090000
opls_700-51    C    0.69826987    0.61307004    0.00007000    0.05580000
opls_142-52    C    0.73401008    0.55805009    0.99993980    0.07800000
opls_145-53    C    0.39281989    0.76735996    0.99983899    -0.17750000
opls_148-54    C    0.84157009    0.47237004    0.99996920    -0.43320000
opls_148-55    C    0.47275987    0.68518011    0.00007000    -0.43320000
opls_148-56    C    0.80237987    0.99180993    0.00077003    -0.43510000
opls_148-57    C    0.20580993    0.80157009    0.00081063    -0.43530000
opls_148-58    C    0.86137006    0.67615005    0.99993000    -0.43530000
opls_148-59    C    0.67589004    0.46274007    0.00002940    -0.43310000
opls_148-60    C    0.99145001    0.20609987    0.00054042    -0.43310000
opls_148-61    C    0.82738011    0.19213991    0.00002940    -0.43320000
opls_148-62    C    0.19238969    0.97935021    0.99938958    -0.43280000
opls_148-63    C    0.46182985    0.86115994    0.00001960    -0.43300000
opls_148-64    C    0.68558009    0.84161992    0.00018061    -0.43310000
opls_148-65    C    0.97989002    0.82749976    0.00014981    -0.43250000
opls_145-66    C    0.97741007    0.96943008    0.50015961    -0.17790000
opls_700-67    C    0.03083000    0.94640014    0.50028001    0.05920000
opls_145-68    C    0.05314993    0.97738994    0.50027021    -0.17870000
opls_700-69    C    0.02272012    0.03083007    0.50003920    0.06160000
opls_145-70    C    0.96941989    0.05318025    0.50007980    -0.17930000
opls_700-71    C    0.94642977    0.02276012    0.50016941    0.06160000
opls_142-72    C    0.89148988    0.04281996    0.49916977    0.07010000
opls_142-73    C    0.06577999    0.89142005    0.49958979    0.08110000
opls_142-74    C    0.04259013    0.06586995    0.49824014    0.06990000
opls_145-75    C    0.08737010    0.80439998    0.49992020    0.16910000
opls_700-76    C    0.06487988    0.77262986    0.50047042    0.07960000
opls_700-77    C    0.14196015    0.78005995    0.49979979    0.07960000
opls_145-78    C    0.09569992    0.71957991    0.50034021    -0.17380000
opls_145-79    C    0.17069008    0.72683993    0.49985999    -0.17470000
opls_700-80    C    0.14931985    0.69498015    0.49980959    0.06600000
opls_145-81    C    0.80448992    0.10822014    0.49992020    0.16980000
opls_700-82    C    0.77259994    0.16250025    0.50062022    0.07940000
opls_700-83    C    0.78026991    0.07785011    0.49980959    0.08010000
opls_145-84    C    0.71958014    0.18458990    0.50042982    -0.17050000
opls_145-85    C    0.72708009    0.10222991    0.49977039    -0.17470000
opls_700-86    C    0.69510986    0.15547017    0.49975919    0.07160000
opls_145-87    C    0.10793005    0.08755990    0.49988940    0.16780000
opls_700-88    C    0.16219992    0.06519999    0.50065942    0.07900000
opls_700-89    C    0.07753013    0.14221001    0.50000980    0.07990000
opls_145-90    C    0.18421997    0.09620016    0.50040041    -0.16390000
opls_145-91    C    0.10187014    0.17103993    0.49986980    -0.17140000
opls_700-92    C    0.15509988    0.14980013    0.49959959    0.06560000
opls_700-93    C    0.18199009    0.63872990    0.49965979    0.07110000
opls_145-94    C    0.16086988    0.60663010    0.49995940    -0.17470000
opls_145-95    C    0.23552985    0.61427009    0.50037941    -0.16700000
opls_700-96    C    0.18976995    0.55347000    0.50030941    0.07990000
opls_700-97    C    0.26654010    0.56124985    0.50065942    0.07970000
opls_145-98    C    0.24441997    0.52916018    0.50009940    0.16940000
opls_700-99    C    0.63887988    0.17898991    0.49973959    0.06910000
opls_145-100    C    0.61439008    0.14991992    0.50040041    -0.17080000
opls_700-101    C    0.55368017    0.25653990    0.50034021    0.07960000
opls_700-102    C    0.56139994    0.17199992    0.50063002    0.08050000
opls_145-103    C    0.52936002    0.22622989    0.50009940    0.16930000
opls_700-104    C    0.17865011    0.18250007    0.49978999    0.07160000
opls_145-105    C    0.23185990    0.16114019    0.50000980    -0.17560000
opls_145-106    C    0.14970995    0.23612993    0.50030941    -0.16750000
opls_700-107    C    0.25639007    0.18975988    0.50023941    0.07960000
opls_700-108    C    0.17202989    0.26682014    0.50042002    0.08050000
opls_145-109    C    0.22628003    0.24436994    0.50005040    0.16890000
opls_145-110    C    0.35554983    0.36412008    0.50014981    -0.17160000
opls_700-111    C    0.38701000    0.31079003    0.50015961    0.05570000
opls_145-112    C    0.36434010    0.28001993    0.50020021    -0.17260000
opls_142-113    C    0.44202013    0.29126993    0.49845014    0.08150000
opls_700-114    C    0.31100997    0.30191011    0.50013020    0.05570000
opls_142-115    C    0.29142981    0.26647016    0.49873015    0.07980000
opls_145-116    C    0.28024979    0.35536012    0.50012040    -0.17190000
opls_700-117    C    0.30212998    0.38680002    0.50006020    0.05450000
opls_142-118    C    0.26667010    0.44182993    0.49844034    0.08130000
opls_145-119    C    0.60683000    0.23221024    0.49996920    -0.17740000
opls_148-120    C    0.15935989    0.52628991    0.50043962    -0.43320000
opls_148-121    C    0.52657989    0.31413012    0.50043962    -0.43320000
opls_148-122    C    0.19738999    0.00808999    0.50079943    -0.43190000
opls_148-123    C    0.79476012    0.19744001    0.50054042    -0.43090000
opls_148-124    C    0.13762014    0.32391989    0.49996920    -0.43530000
opls_148-125    C    0.32351994    0.53951994    0.49995940    -0.43300000
opls_148-126    C    0.00775998    0.79509009    0.50042982    -0.42360000
opls_148-127    C    0.17240974    0.80718015    0.49928037    -0.43310000
opls_148-128    C    0.80748987    0.02025002    0.49943018    -0.43310000
opls_148-129    C    0.53934004    0.13705002    0.49995940    -0.43290000
opls_148-130    C    0.31396019    0.15902989    0.50030941    -0.43310000
opls_148-131    C    0.01992997    0.17259996    0.49985999    -0.43320000
opls_144-132    H    0.11753977    0.98751004    0.99721950    0.10110000
opls_144-133    H    0.89442996    0.11723005    0.99460001    0.09950000
opls_144-134    H    0.98777988    0.89446021    0.99483941    0.09950000
opls_146-135    H    0.92231008    0.30299988    0.00142945    0.10490000
opls_146-136    H    0.78723003    0.28945003    0.00032901    0.10610000
opls_146-137    H    0.30285014    0.77346981    0.00151065    0.10540000
opls_146-138    H    0.28952005    0.92203990    0.00000980    0.10590000
opls_146-139    H    0.77408010    0.92274986    0.00144065    0.10590000
opls_146-140    H    0.92265993    0.78744011    0.00024921    0.10580000
opls_146-141    H    0.88015006    0.37550004    0.99983899    0.10580000
opls_146-142    H    0.74392023    0.36403979    0.00037941    0.10540000
opls_146-143    H    0.36339004    0.89110996    0.00056982    0.10490000
opls_146-144    H    0.74361990    0.88042023    0.00003920    0.10590000
opls_146-145    H    0.89149000    0.74432977    0.00110044    0.10540000
opls_144-146    H    0.54954003    0.67647008    0.99894996    0.08160000
opls_144-147    H    0.67645000    0.77381008    0.99721950    0.06730000
opls_144-148    H    0.77366996    0.54947012    0.99980959    0.07980000
opls_146-149    H    0.37585976    0.74293010    0.99989920    0.10560000
opls_144-150    H    0.88240994    0.01220005    0.49740011    0.10170000
opls_144-151    H    0.10549989    0.88230995    0.49861955    0.10350000
opls_144-152    H    0.01189989    0.10556020    0.49446000    0.09950000
opls_146-153    H    0.07653008    0.69716007    0.50085963    0.10590000
opls_146-154    H    0.21205981    0.70995006    0.49986980    0.10580000
opls_146-155    H    0.69708998    0.22620022    0.50117044    0.10540000
opls_146-156    H    0.71029972    0.07765025    0.49994960    0.10570000
opls_146-157    H    0.22580977    0.07708021    0.50150925    0.10590000
opls_146-158    H    0.07729001    0.21243024    0.50026041    0.10560000
opls_146-159    H    0.11949973    0.62336018    0.50034021    0.10620000
opls_146-160    H    0.25455014    0.63681985    0.50147005    0.10520000
opls_146-161    H    0.63693010    0.10831990    0.50140985    0.10490000
opls_146-162    H    0.25633975    0.11973025    0.50021001    0.10530000
opls_146-163    H    0.10811983    0.25532016    0.50094923    0.10490000
opls_144-164    H    0.45057003    0.32232015    0.49483941    0.08660000
opls_144-165    H    0.32239987    0.22680020    0.49567944    0.10130000
opls_144-166    H    0.22706997    0.45043021    0.49495982    0.09990000
opls_146-167    H    0.62356989    0.25682991    0.50030941    0.10580000
opls_702-168    H    0.20581989    0.99284993    0.35751967    0.12070000
opls_702-169    H    0.18068997    0.98803021    0.57319043    0.13330000
opls_702-170    H    0.23411012    0.99823990    0.56601938    0.12030000
opls_702-171    H    0.80907994    0.19964016    0.36165962    0.12400000
opls_702-172    H    0.82734999    0.18428993    0.59560944    0.12630000
opls_702-173    H    0.76547004    0.23640018    0.53976003    0.12130000
opls_702-174    H    0.09812997    0.33371021    0.53047910    0.12030000
opls_702-175    H    0.13790992    0.34036018    0.36277966    0.12370000
opls_702-176    H    0.14984988    0.34250015    0.60302971    0.12480000
opls_702-177    H    0.33818010    0.53392003    0.35557920    0.12930000
opls_702-178    H    0.34356984    0.50230001    0.56967911    0.12620000
opls_702-179    H    0.33316996    0.56610998    0.56872007    0.12030000
opls_702-180    H    0.99802003    0.76522990    0.52801921    0.12090000
opls_702-181    H    0.99074994    0.81266008    0.36537955    0.12360000
opls_702-182    H    0.98876978    0.82545005    0.60445916    0.12490000
opls_702-183    H    0.56741987    0.09929016    0.55490018    0.12030000
opls_702-184    H    0.52946022    0.13155988    0.35673004    0.12060000
opls_702-185    H    0.50422001    0.15266004    0.58277938    0.12620000
opls_702-186    H    0.76456991    0.00137983    0.05441016    0.12070000
opls_702-187    H    0.79671999    0.00769004    0.85873071    0.12210000
opls_702-188    H    0.81752015    0.01165983    0.08385042    0.12780000
opls_702-189    H    0.86289987    0.66024022    0.85992916    0.12700000
opls_702-190    H    0.84743000    0.65751005    0.09579985    0.12620000
opls_702-191    H    0.90044976    0.66594017    0.03957942    0.12090000
opls_702-192    H    0.23059988    0.76687011    0.08162994    0.12170000
opls_702-193    H    0.20396989    0.78903009    0.85797049    0.12310000
opls_702-194    H    0.16703023    0.81976975    0.05742027    0.13010000
opls_702-195    H    0.48190004    0.85786996    0.86786044    0.12310000
opls_702-196    H    0.49017012    0.85081998    0.11207963    0.12360000
opls_702-197    H    0.43183000    0.90122006    0.01782964    0.12130000
opls_702-198    H    0.66551005    0.43283989    0.01203063    0.12130000
opls_702-199    H    0.65895995    0.48438977    0.87059054    0.12310000
opls_702-200    H    0.65821005    0.48986989    0.11587937    0.12320000
opls_702-201    H    0.00537004    0.20627992    0.85848011    0.12310000
opls_702-202    H    0.01225005    0.16661984    0.05067062    0.12360000
opls_702-203    H    0.00139004    0.22990004    0.08723994    0.12000000
opls_702-204    H    0.16827014    0.50062995    0.62128917    0.12450000
opls_702-205    H    0.16582012    0.50334995    0.37307983    0.12560000
opls_702-206    H    0.11846001    0.55453990    0.50667964    0.12330000
opls_702-207    H    0.50089012    0.33088994    0.62105956    0.12320000
opls_702-208    H    0.50367989    0.33067021    0.37288942    0.12460000
opls_702-209    H    0.55483989    0.32674987    0.50702965    0.12360000
opls_702-210    H    0.16511994    0.83109993    0.37425027    0.12170000
opls_702-211    H    0.21337007    0.77890013    0.50070983    0.12430000
opls_702-212    H    0.16447006    0.83189013    0.62230000    0.12370000
opls_702-213    H    0.83117980    0.00366016    0.37406967    0.12080000
opls_702-214    H    0.77933013    0.00745006    0.50224008    0.12400000
opls_702-215    H    0.83261985    0.00345023    0.62149917    0.12160000
opls_702-216    H    0.33054003    0.16547990    0.37315963    0.13040000
opls_702-217    H    0.32641998    0.11815012    0.50619942    0.12400000
opls_702-218    H    0.33083010    0.16767995    0.62137037    0.12350000
opls_702-219    H    0.00315989    0.16360990    0.62026013    0.12040000
opls_702-220    H    0.00341007    0.16635010    0.37230000    0.12350000
opls_702-221    H    0.00720997    0.21352998    0.50644023    0.12400000
opls_702-222    H    0.66870009    0.83360976    0.12281942    0.12240000
opls_702-223    H    0.66880007    0.83479001    0.87447988    0.12390000
opls_702-224    H    0.67334017    0.88246978    0.00309971    0.12410000
opls_702-225    H    0.99643986    0.83407993    0.87355025    0.12020000
opls_702-226    H    0.99285002    0.78651984    0.00622042    0.12360000
opls_702-227    H    0.99667998    0.83651988    0.12029933    0.12020000
opls_702-228    H    0.49691001    0.66843989    0.87559012    0.12360000
opls_702-229    H    0.44425001    0.67283000    0.00058942    0.12390000
opls_702-230    H    0.49719005    0.66836003    0.12398006    0.12390000
opls_702-231    H    0.16733002    0.99611007    0.12152017    0.12040000
opls_702-232    H    0.16871008    0.99598001    0.87386946    0.12040000
opls_702-233    H    0.22056968    0.99212024    0.00214908    0.12390000
opls_702-234    H    0.83429989    0.49649014    0.12445888    0.12390000
opls_702-235    H    0.83405002    0.49677023    0.87602974    0.12390000
opls_702-236    H    0.88237978    0.44366025    0.99940918    0.12490000
opls_702-237    H    0.83656012    0.16615006    0.11986952    0.12170000
opls_702-238    H    0.83373006    0.16922014    0.87294963    0.12040000
opls_702-239    H    0.78641988    0.22016015    0.00679024    0.12360000
opls_146-240    H    0.37257004    0.38857986    0.49958979    0.10450000
opls_146-241    H    0.38881994    0.23851999    0.49965979    0.10690000
opls_146-242    H    0.23877005    0.37237008    0.49964999    0.10450000
opls_146-243    H    0.62837988    0.61030993    0.99988940    0.10690000
opls_146-244    H    0.61018006    0.76118975    0.99981939    0.10460000
opls_146-245    H    0.76103989    0.62844999    0.99983059    0.10580000
opls_146-246    H    0.05444981    0.90516004    0.99963039    0.10650000
opls_146-247    H    0.90522000    0.03996991    0.99964999    0.10650000
opls_146-248    H    0.04003013    0.05439993    0.99971019    0.10650000
opls_146-249    H    0.96002986    0.94528994    0.49974939    0.10450000
opls_146-250    H    0.09466983    0.95999010    0.49978999    0.10740000
opls_146-251    H    0.94527984    0.09471021    0.49964999    0.10700000
opls_750-252    N    0.14271996    0.90899978    0.00040041    -0.29980000
opls_750-253    N    0.94739002    0.14280013    0.00083023    -0.29930000
opls_750-254    N    0.90926006    0.94756997    0.00075043    -0.30100000
opls_750-255    N    0.52306005    0.75533010    0.00009940    -0.29360000
opls_750-256    N    0.75525001    0.72118005    0.00039061    -0.28990000
opls_750-257    N    0.72103999    0.52332010    0.99999020    -0.29360000
opls_750-258    N    0.85707987    0.09074025    0.50027021    -0.30100000
opls_750-259    N    0.05226984    0.85702008    0.50009940    -0.30120000
opls_750-260    N    0.09043999    0.05247019    0.50076023    -0.29980000
opls_750-261    N    0.47683007    0.24358993    0.50084983    -0.29330000
opls_750-262    N    0.24372001    0.27947993    0.50070003    -0.29480000
opls_750-263    N    0.27957009    0.47659986    0.50083023    -0.29320000
