#======================================================================
# Crystal Data Generated By AuToFF
#----------------------------------------------------------------------

data_AuToFF_phase_1

_cell_length_a                         38.4173
_cell_length_b                         44.4373
_cell_length_c                         3.9932
_cell_angle_alpha                      66.75
_cell_angle_beta                       90.00
_cell_angle_gamma                      90.00
_symmetry_space_group_name_H-M_alt     'P 1'
_symmetry_space_group_IT_number        1

loop_
_space_group_symop_operation_xyz
   'x, y, z'

loop_
   _atom_site_label
   _atom_site_type_symbol
   _atom_site_fract_x
   _atom_site_fract_y
   _atom_site_fract_z
   _atom_site_charge
opls_700-0    C    0.96771012    0.43085015    0.16646861    0.02360000
opls_700-1    C    0.46771012    0.93085015    0.16646861    0.02360000
opls_700-2    C    0.96771012    0.56915018    0.83352867    0.02360000
opls_700-3    C    0.46771012    0.06915018    0.83352867    0.02360000
opls_700-4    C    0.03228988    0.56915018    0.83352867    0.02360000
opls_700-5    C    0.53228988    0.06915018    0.83352867    0.02360000
opls_700-6    C    0.03228988    0.43085015    0.16646861    0.02360000
opls_700-7    C    0.53228988    0.93085015    0.16646861    0.02360000
opls_700-8    C    0.93520992    0.40991013    0.20921961    0.06430000
opls_700-9    C    0.43520992    0.90991013    0.20921961    0.06430000
opls_700-10    C    0.93520992    0.59009010    0.79078039    0.06440000
opls_700-11    C    0.43520992    0.09009010    0.79078039    0.06440000
opls_700-12    C    0.06479008    0.59009010    0.79078039    0.06440000
opls_700-13    C    0.56479008    0.09009010    0.79078039    0.06440000
opls_700-14    C    0.06479008    0.40991013    0.20921961    0.06440000
opls_700-15    C    0.56479008    0.90991013    0.20921961    0.06430000
opls_145-16    C    0.90400002    0.41560008    0.36055842    -0.12860000
opls_145-17    C    0.40400002    0.91560008    0.36055842    -0.12870000
opls_145-18    C    0.90400002    0.58440002    0.63943885    -0.12860000
opls_145-19    C    0.40400002    0.08440002    0.63943885    -0.12870000
opls_145-20    C    0.09599998    0.58440002    0.63943885    -0.12870000
opls_145-21    C    0.59599998    0.08440002    0.63943885    -0.12860000
opls_145-22    C    0.09599998    0.41560008    0.36055842    -0.12870000
opls_145-23    C    0.59599998    0.91560008    0.36055842    -0.12860000
opls_145-24    C    0.87388989    0.39721009    0.37711098    -0.12580000
opls_145-25    C    0.37390004    0.89721009    0.37711098    -0.12580000
opls_145-26    C    0.87388989    0.60279014    0.62288902    -0.12570000
opls_145-27    C    0.37390004    0.10279014    0.62288902    -0.12580000
opls_145-28    C    0.12609996    0.60279014    0.62288902    -0.12580000
opls_145-29    C    0.62611011    0.10279014    0.62288902    -0.12580000
opls_145-30    C    0.12609996    0.39721009    0.37711098    -0.12570000
opls_145-31    C    0.62611011    0.89721009    0.37711098    -0.12580000
opls_700-32    C    0.87445994    0.37063999    0.27119970    0.05880000
opls_700-33    C    0.37445994    0.87063999    0.27119970    0.05880000
opls_700-34    C    0.87445994    0.62936001    0.72880030    0.05880000
opls_700-35    C    0.37445994    0.12936001    0.72880030    0.05880000
opls_700-36    C    0.12554006    0.62936001    0.72880030    0.05880000
opls_700-37    C    0.62554006    0.12936001    0.72880030    0.05880000
opls_700-38    C    0.12554006    0.37063999    0.27119970    0.05880000
opls_700-39    C    0.62554006    0.87063999    0.27119970    0.05880000
opls_145-40    C    0.09391993    0.36264013    0.15188938    -0.12790000
opls_145-41    C    0.59391993    0.86264013    0.15188938    -0.12780000
opls_145-42    C    0.09391993    0.63736009    0.84811062    -0.12760000
opls_145-43    C    0.59391993    0.13736009    0.84811062    -0.12760000
opls_145-44    C    0.90608007    0.63736009    0.84811062    -0.12760000
opls_145-45    C    0.40608007    0.13736009    0.84811062    -0.12760000
opls_145-46    C    0.90608007    0.36264013    0.15188938    -0.12790000
opls_145-47    C    0.40608007    0.86264013    0.15188938    -0.12780000
opls_145-48    C    0.06415990    0.38227011    0.11552991    -0.18180000
opls_145-49    C    0.56415990    0.88227011    0.11552991    -0.18180000
opls_145-50    C    0.06415990    0.61774002    0.88447009    -0.18180000
opls_145-51    C    0.56415990    0.11774002    0.88447009    -0.18180000
opls_145-52    C    0.93584010    0.61774002    0.88447009    -0.18180000
opls_145-53    C    0.43584010    0.11774002    0.88447009    -0.18180000
opls_145-54    C    0.93584010    0.38227011    0.11552991    -0.18180000
opls_145-55    C    0.43584010    0.88227011    0.11552991    -0.18180000
opls_142-56    C    0.65837995    0.14777012    0.71268929    0.02870000
opls_142-57    C    0.15837995    0.64777012    0.71268929    0.02870000
opls_142-58    C    0.65837995    0.85222988    0.28731071    0.07330000
opls_142-59    C    0.15837995    0.35222988    0.28731071    0.07330000
opls_142-60    C    0.34162005    0.85222988    0.28731071    0.07330000
opls_142-61    C    0.84162005    0.35222988    0.28731071    0.07330000
opls_142-62    C    0.34162005    0.14777012    0.71268929    0.02870000
opls_142-63    C    0.84162005    0.64777012    0.71268929    0.02870000
opls_145-64    C    0.77421006    0.67669004    0.82113810    -0.16430000
opls_145-65    C    0.27421006    0.17669004    0.82113810    -0.16430000
opls_145-66    C    0.77421006    0.32331006    0.17885917    -0.16430000
opls_145-67    C    0.27421006    0.82331006    0.17885917    -0.16430000
opls_145-68    C    0.22578994    0.32331006    0.17885917    -0.16430000
opls_145-69    C    0.72578994    0.82331006    0.17885917    -0.16430000
opls_145-70    C    0.22578994    0.67669004    0.82113810    -0.16430000
opls_145-71    C    0.72578994    0.17669004    0.82113810    -0.16430000
opls_700-72    C    0.78030002    0.73298990    0.97119043    0.09870000
opls_700-73    C    0.28030002    0.23298990    0.97119043    0.09870000
opls_700-74    C    0.78030002    0.26701010    0.02880957    0.09870000
opls_700-75    C    0.28030002    0.76701010    0.02880957    0.09870000
opls_700-76    C    0.21969998    0.26701010    0.02880957    0.09870000
opls_700-77    C    0.71969998    0.76701010    0.02880957    0.09870000
opls_700-78    C    0.21969998    0.73298990    0.97119043    0.09870000
opls_700-79    C    0.71969998    0.23298990    0.97119043    0.09870000
opls_145-80    C    0.81023992    0.71559007    0.94443869    -0.23040000
opls_145-81    C    0.31023992    0.21559007    0.94443869    -0.23040000
opls_145-82    C    0.81023992    0.28440993    0.05556131    -0.23040000
opls_145-83    C    0.31023992    0.78440993    0.05556131    -0.23040000
opls_145-84    C    0.18976008    0.28440993    0.05556131    -0.23040000
opls_145-85    C    0.68976008    0.78440993    0.05556131    -0.23040000
opls_145-86    C    0.18976008    0.71559007    0.94443869    -0.23040000
opls_145-87    C    0.68976008    0.21559007    0.94443869    -0.23040000
opls_145-88    C    0.80743988    0.68755006    0.86581882    0.19540000
opls_145-89    C    0.30743988    0.18755006    0.86581882    0.19540000
opls_145-90    C    0.80743988    0.31244994    0.13418118    0.19550000
opls_145-91    C    0.30743988    0.81244994    0.13418118    0.19550000
opls_145-92    C    0.19256012    0.31244994    0.13418118    0.19560000
opls_145-93    C    0.69256012    0.81244994    0.13418118    0.19550000
opls_145-94    C    0.19256012    0.68755006    0.86581882    0.19540000
opls_145-95    C    0.69256012    0.18755006    0.86581882    0.19540000
opls_145-96    C    0.25581990    0.30659001    0.14835974    -0.12710000
opls_700-97    C    0.25307010    0.27833990    0.07420985    0.09850000
opls_145-98    C    0.28310006    0.26130987    0.04526128    -0.16700000
opls_700-99    C    0.53211001    0.03444994    0.92716930    0.00500000
opls_145-100    C    0.43709995    0.01607003    0.98639927    -0.12990000
opls_145-101    C    0.75581990    0.80659001    0.14835974    -0.12700000
opls_700-102    C    0.75307010    0.77833990    0.07420985    0.09850000
opls_145-103    C    0.78310006    0.76130987    0.04526128    -0.16700000
opls_700-104    C    0.03211001    0.53444994    0.92716930    0.00500000
opls_145-105    C    0.93709995    0.51607003    0.98639927    -0.12980000
opls_145-106    C    0.25581990    0.69340999    0.85164026    -0.12710000
opls_700-107    C    0.25307010    0.72166010    0.92579015    0.09850000
opls_145-108    C    0.28310006    0.73869013    0.95473872    -0.16700000
opls_700-109    C    0.53211001    0.96555006    0.07283070    0.00500000
opls_145-110    C    0.43709995    0.98392997    0.01360073    -0.12990000
opls_145-111    C    0.75581990    0.19340999    0.85164026    -0.12700000
opls_700-112    C    0.75307010    0.22166010    0.92579015    0.09850000
opls_145-113    C    0.78310006    0.23869013    0.95473872    -0.16700000
opls_700-114    C    0.03211001    0.46555006    0.07283070    0.00500000
opls_145-115    C    0.93709995    0.48392997    0.01360073    -0.12990000
opls_145-116    C    0.74418010    0.69340999    0.85164026    -0.12710000
opls_700-117    C    0.74692990    0.72166010    0.92579015    0.09850000
opls_145-118    C    0.71689994    0.73869013    0.95473872    -0.16700000
opls_700-119    C    0.46788999    0.96555006    0.07283070    0.00500000
opls_145-120    C    0.56290005    0.98392997    0.01360073    -0.12990000
opls_145-121    C    0.24418010    0.19340999    0.85164026    -0.12710000
opls_700-122    C    0.24692990    0.22166010    0.92579015    0.09850000
opls_145-123    C    0.21689994    0.23869013    0.95473872    -0.16700000
opls_700-124    C    0.96788999    0.46555006    0.07283070    0.00500000
opls_145-125    C    0.06290005    0.48392997    0.01360073    -0.12990000
opls_145-126    C    0.74418010    0.30659001    0.14835974    -0.12710000
opls_700-127    C    0.74692990    0.27833990    0.07420985    0.09850000
opls_145-128    C    0.71689994    0.26130987    0.04526128    -0.16700000
opls_700-129    C    0.46788999    0.03444994    0.92716930    0.00500000
opls_145-130    C    0.56290005    0.01607003    0.98639927    -0.12980000
opls_145-131    C    0.24418010    0.80659001    0.14835974    -0.12710000
opls_700-132    C    0.24692990    0.77833990    0.07420985    0.09850000
opls_145-133    C    0.21689994    0.76130987    0.04526128    -0.16690000
opls_700-134    C    0.96788999    0.53444994    0.92716930    0.00500000
opls_145-135    C    0.06290005    0.51607003    0.98639927    -0.12980000
opls_145-136    C    0.50000000    0.08540010    0.77231992    -0.17580000
opls_700-137    C    0.50000000    0.01736999    0.95936951    0.00060000
opls_145-138    C    0.00000000    0.58540010    0.77231992    -0.17580000
opls_700-139    C    0.00000000    0.51736999    0.95936951    0.00060000
opls_145-140    C    0.50000000    0.91459990    0.22768008    -0.17570000
opls_700-141    C    0.50000000    0.98263001    0.04063049    0.00060000
opls_145-142    C    0.00000000    0.41459990    0.22768008    -0.17580000
opls_700-143    C    0.00000000    0.48263001    0.04063049    0.00060000
opls_146-144    H    0.90308012    0.43311998    0.48629842    0.12130000
opls_146-145    H    0.40308012    0.93311998    0.48629842    0.12130000
opls_146-146    H    0.90308012    0.56688011    0.51369885    0.12130000
opls_146-147    H    0.40308012    0.06688011    0.51369885    0.12130000
opls_146-148    H    0.09691988    0.56688011    0.51369885    0.12130000
opls_146-149    H    0.59691988    0.06688011    0.51369885    0.12130000
opls_146-150    H    0.09691988    0.43311998    0.48629842    0.12140000
opls_146-151    H    0.59691988    0.93311998    0.48629842    0.12130000
opls_146-152    H    0.85034008    0.40284017    0.48928840    0.11980000
opls_146-153    H    0.35034008    0.90284017    0.48928840    0.12000000
opls_146-154    H    0.85034008    0.59716015    0.51070887    0.11980000
opls_146-155    H    0.35034008    0.09716015    0.51070887    0.12000000
opls_146-156    H    0.14965992    0.59716015    0.51070887    0.12000000
opls_146-157    H    0.64965992    0.09716015    0.51070887    0.11980000
opls_146-158    H    0.14965992    0.40284017    0.48928840    0.12000000
opls_146-159    H    0.64965992    0.90284017    0.48928840    0.11990000
opls_146-160    H    0.09300003    0.34217997    0.06933103    0.11570000
opls_146-161    H    0.59300003    0.84217997    0.06933103    0.11560000
opls_146-162    H    0.09300003    0.65782003    0.93066897    0.11560000
opls_146-163    H    0.59300003    0.15782003    0.93066897    0.11560000
opls_146-164    H    0.90699997    0.65782003    0.93066897    0.11560000
opls_146-165    H    0.40699997    0.15782003    0.93066897    0.11560000
opls_146-166    H    0.90699997    0.34217997    0.06933103    0.11560000
opls_146-167    H    0.40699997    0.84217997    0.06933103    0.11560000
opls_146-168    H    0.04105000    0.37645007    0.99808118    0.12310000
opls_146-169    H    0.54105000    0.87645007    0.99808118    0.12310000
opls_146-170    H    0.04105000    0.62355016    0.00191882    0.12260000
opls_146-171    H    0.54105000    0.12355016    0.00191882    0.12260000
opls_146-172    H    0.95895000    0.62355016    0.00191882    0.12260000
opls_146-173    H    0.45895000    0.12355016    0.00191882    0.12260000
opls_146-174    H    0.95895000    0.37645007    0.99808118    0.12310000
opls_146-175    H    0.45895000    0.87645007    0.99808118    0.12310000
opls_146-176    H    0.83591012    0.72344000    0.98814910    0.11890000
opls_146-177    H    0.28116994    0.31539003    0.18743936    0.11760000
opls_146-178    H    0.30862007    0.26980990    0.08424005    0.12160000
opls_146-179    H    0.41221012    0.02584996    0.01406954    0.09900000
opls_144-180    H    0.67986012    0.14237008    0.57187946    0.10230000
opls_146-181    H    0.72803997    0.15512014    0.76447838    0.09770000
opls_146-182    H    0.33591012    0.22344000    0.98814910    0.11890000
opls_146-183    H    0.78116994    0.81539003    0.18743936    0.11750000
opls_146-184    H    0.80862007    0.76980990    0.08424005    0.12160000
opls_146-185    H    0.91221012    0.52584996    0.01406954    0.09900000
opls_144-186    H    0.17986012    0.64237008    0.57187946    0.10230000
opls_146-187    H    0.22803997    0.65512014    0.76447838    0.09770000
opls_146-188    H    0.83591012    0.27656000    0.01185090    0.11890000
opls_146-189    H    0.28116994    0.68461013    0.81256882    0.11750000
opls_146-190    H    0.30862007    0.73019010    0.91575995    0.12160000
opls_146-191    H    0.41221012    0.97415004    0.98593046    0.09900000
opls_144-192    H    0.67986012    0.85762992    0.42812054    0.10230000
opls_146-193    H    0.72803997    0.84487995    0.23551890    0.09780000
opls_146-194    H    0.33591012    0.77656000    0.01185090    0.11900000
opls_146-195    H    0.78116994    0.18460997    0.81256064    0.11750000
opls_146-196    H    0.80862007    0.23019010    0.91575995    0.12160000
opls_146-197    H    0.91221012    0.47415004    0.98593046    0.09910000
opls_144-198    H    0.17986012    0.35762992    0.42812054    0.10230000
opls_146-199    H    0.22803997    0.34487995    0.23551890    0.09780000
opls_146-200    H    0.16408988    0.27656000    0.01185090    0.11890000
opls_146-201    H    0.71883006    0.68461013    0.81256882    0.11750000
opls_146-202    H    0.69137993    0.73019010    0.91575995    0.12160000
opls_146-203    H    0.58778988    0.97415004    0.98593046    0.09900000
opls_144-204    H    0.32013988    0.85762992    0.42812054    0.10230000
opls_146-205    H    0.27196003    0.84487995    0.23551890    0.09770000
opls_146-206    H    0.66408988    0.77656000    0.01185090    0.11890000
opls_146-207    H    0.21883006    0.18460997    0.81256064    0.11760000
opls_146-208    H    0.19137993    0.23019010    0.91575995    0.12160000
opls_146-209    H    0.08778988    0.47415004    0.98593046    0.09900000
opls_144-210    H    0.82013988    0.35762992    0.42812054    0.10230000
opls_146-211    H    0.77196003    0.34487995    0.23551890    0.09770000
opls_146-212    H    0.16408988    0.72344000    0.98814910    0.11890000
opls_146-213    H    0.71883006    0.31539003    0.18743936    0.11750000
opls_146-214    H    0.69137993    0.26980990    0.08424005    0.12160000
opls_146-215    H    0.58778988    0.02584996    0.01406954    0.09900000
opls_144-216    H    0.32013988    0.14237008    0.57187946    0.10230000
opls_146-217    H    0.27196003    0.15512014    0.76447838    0.09780000
opls_146-218    H    0.66408988    0.22344000    0.98814910    0.11890000
opls_146-219    H    0.21883006    0.81539003    0.18743936    0.11750000
opls_146-220    H    0.19137993    0.76980990    0.08424005    0.12160000
opls_146-221    H    0.08778988    0.52584996    0.01406954    0.09900000
opls_144-222    H    0.82013988    0.64237008    0.57187946    0.10230000
opls_146-223    H    0.77196003    0.65512014    0.76447838    0.09780000
opls_146-224    H    0.50000000    0.11185015    0.66695921    0.12130000
opls_146-225    H    0.00000000    0.61185015    0.66695921    0.12130000
opls_146-226    H    0.50000000    0.88815007    0.33304079    0.12130000
opls_146-227    H    0.00000000    0.38815007    0.33304079    0.12130000
opls_750-228    N    0.16146996    0.66957013    0.85545883    -0.32280000
opls_750-229    N    0.66146996    0.16957013    0.85545883    -0.32270000
opls_750-230    N    0.16146996    0.33044000    0.14454117    -0.32270000
opls_750-231    N    0.66146996    0.83044000    0.14454117    -0.32260000
opls_750-232    N    0.83853004    0.33044000    0.14454117    -0.32260000
opls_750-233    N    0.33853004    0.83044000    0.14454117    -0.32270000
opls_750-234    N    0.83853004    0.66957013    0.85545883    -0.32270000
opls_750-235    N    0.33853004    0.16957013    0.85545883    -0.32280000
