#======================================================================
# Crystal Data Generated By AuToFF
#----------------------------------------------------------------------

data_AuToFF_phase_1

_cell_length_a                         20.3180
_cell_length_b                         20.3180
_cell_length_c                         3.4545
_cell_angle_alpha                      90.00
_cell_angle_beta                       90.00
_cell_angle_gamma                      90.00
_symmetry_space_group_name_H-M_alt     'P 1'
_symmetry_space_group_IT_number        1

loop_
_space_group_symop_operation_xyz
   'x, y, z'

loop_
   _atom_site_label
   _atom_site_type_symbol
   _atom_site_fract_x
   _atom_site_fract_y
   _atom_site_fract_z
   _atom_site_charge
opls_166-0    C    0.32137021    0.96496013    0.50000000    0.31170000
opls_145-1    C    0.26144995    0.93027020    0.50000000    -0.22180000
opls_716-2    C    0.20348017    0.96672999    0.50000000    -0.01620000
opls_543-3    C    0.13868983    0.94766020    0.50000000    0.33590000
opls_166-4    C    0.43896988    0.96521016    0.50000000    0.18940000
opls_166-5    C    0.67862979    0.03503987    0.50000000    0.31170000
opls_145-6    C    0.73855005    0.06972980    0.50000000    -0.22180000
opls_716-7    C    0.79651983    0.03327001    0.50000000    -0.01620000
opls_543-8    C    0.86131017    0.05233980    0.50000000    0.33590000
opls_166-9    C    0.56103012    0.03478984    0.50000000    0.18940000
opls_166-10    C    0.03503987    0.32137021    0.50000000    0.31170000
opls_145-11    C    0.06972980    0.26144995    0.50000000    -0.22180000
opls_716-12    C    0.03327001    0.20348017    0.50000000    -0.01620000
opls_543-13    C    0.05233980    0.13868983    0.50000000    0.33590000
opls_166-14    C    0.03478984    0.43896988    0.50000000    0.18940000
opls_166-15    C    0.96496013    0.67862979    0.50000000    0.31170000
opls_145-16    C    0.93027020    0.73855005    0.50000000    -0.22180000
opls_716-17    C    0.96672999    0.79651983    0.50000000    -0.01620000
opls_543-18    C    0.94766020    0.86131017    0.50000000    0.33590000
opls_166-19    C    0.96521016    0.56103012    0.50000000    0.18940000
opls_166-20    C    0.67862979    0.96496013    0.50000000    0.31170000
opls_145-21    C    0.73855005    0.93027020    0.50000000    -0.22180000
opls_716-22    C    0.79651983    0.96672999    0.50000000    -0.01620000
opls_543-23    C    0.86131017    0.94766020    0.50000000    0.33590000
opls_166-24    C    0.56103012    0.96521016    0.50000000    0.18940000
opls_166-25    C    0.32137021    0.03503987    0.50000000    0.31170000
opls_145-26    C    0.26144995    0.06972980    0.50000000    -0.22180000
opls_716-27    C    0.20348017    0.03327001    0.50000000    -0.01620000
opls_543-28    C    0.13868983    0.05233980    0.50000000    0.33590000
opls_166-29    C    0.43896988    0.03478984    0.50000000    0.18940000
opls_166-30    C    0.96496013    0.32137021    0.50000000    0.31170000
opls_145-31    C    0.93027020    0.26144995    0.50000000    -0.22180000
opls_716-32    C    0.96672999    0.20348017    0.50000000    -0.01620000
opls_543-33    C    0.94766020    0.13868983    0.50000000    0.33600000
opls_166-34    C    0.96521016    0.43896988    0.50000000    0.18950000
opls_166-35    C    0.03503987    0.67862979    0.50000000    0.31170000
opls_145-36    C    0.06972980    0.73855005    0.50000000    -0.22180000
opls_716-37    C    0.03327001    0.79651983    0.50000000    -0.01620000
opls_543-38    C    0.05233980    0.86131017    0.50000000    0.33590000
opls_166-39    C    0.03478984    0.56103012    0.50000000    0.18940000
opls_700-40    C    0.50000000    0.93025002    0.50000000    -0.18390000
opls_700-41    C    0.50000000    0.06974998    0.50000000    -0.18390000
opls_700-42    C    0.06974998    0.50000000    0.50000000    -0.18390000
opls_700-43    C    0.93025002    0.50000000    0.50000000    -0.18370000
opls_261-44    C    0.14208977    0.50000000    0.50000000    0.24430000
opls_261-45    C    0.85791023    0.50000000    0.50000000    0.24430000
opls_261-46    C    0.50000000    0.14208977    0.50000000    0.24430000
opls_261-47    C    0.50000000    0.85791023    0.50000000    0.24440000
opls_180-48    O    0.38002018    0.92889015    0.50000000    -0.21430000
opls_180-49    O    0.61997982    0.07110985    0.50000000    -0.21430000
opls_180-50    O    0.07110985    0.38002018    0.50000000    -0.21420000
opls_180-51    O    0.92889015    0.61997982    0.50000000    -0.21430000
opls_180-52    O    0.61997982    0.92889015    0.50000000    -0.21430000
opls_180-53    O    0.38002018    0.07110985    0.50000000    -0.21430000
opls_180-54    O    0.92889015    0.38002018    0.50000000    -0.21430000
opls_180-55    O    0.07110985    0.61997982    0.50000000    -0.21430000
opls_146-56    H    0.26151983    0.87415986    0.50000000    0.04290000
opls_146-57    H    0.73848017    0.12584014    0.50000000    0.04300000
opls_146-58    H    0.12584014    0.26151983    0.50000000    0.04290000
opls_146-59    H    0.87415986    0.73848017    0.50000000    0.04290000
opls_146-60    H    0.73848017    0.87415986    0.50000000    0.04290000
opls_146-61    H    0.26151983    0.12584014    0.50000000    0.04290000
opls_146-62    H    0.87415986    0.26151983    0.50000000    0.04290000
opls_146-63    H    0.12584014    0.73848017    0.50000000    0.04290000
opls_542-64    N    0.09695984    0.00000000    0.50000000    -0.36400000
opls_542-65    N    0.90304016    0.00000000    0.50000000    -0.36400000
opls_542-66    N    0.00000000    0.09695984    0.50000000    -0.36400000
opls_542-67    N    0.00000000    0.90304016    0.50000000    -0.36400000
opls_750-68    N    0.11892017    0.11892017    0.50000000    -0.36440000
opls_750-69    N    0.88107983    0.88107983    0.50000000    -0.36440000
opls_750-70    N    0.88107983    0.11892017    0.50000000    -0.36440000
opls_750-71    N    0.11892017    0.88107983    0.50000000    -0.36430000
opls_262-72    N    0.19902992    0.50000000    0.50000000    -0.29740000
opls_262-73    N    0.80097008    0.50000000    0.50000000    -0.29740000
opls_262-74    N    0.50000000    0.19902992    0.50000000    -0.29740000
opls_262-75    N    0.50000000    0.80097008    0.50000000    -0.29740000
F2_Ni4+2-76    Ni    0.00000000    0.00000000    0.50000000    0.44000000
