#======================================================================
# Crystal Data Generated By AuToFF
#----------------------------------------------------------------------

data_AuToFF_phase_1

_cell_length_a                         43.1325
_cell_length_b                         43.1325
_cell_length_c                         3.3300
_cell_angle_alpha                      90.00
_cell_angle_beta                       90.00
_cell_angle_gamma                      120.00
_symmetry_space_group_name_H-M_alt     'P 1'
_symmetry_space_group_IT_number        1

loop_
_space_group_symop_operation_xyz
   'x, y, z'

loop_
   _atom_site_label
   _atom_site_type_symbol
   _atom_site_fract_x
   _atom_site_fract_y
   _atom_site_fract_z
   _atom_site_charge
opls_167-0    O    0.53559989    0.40690997    0.50000000    -0.31920000
opls_167-1    O    0.59309006    0.12870002    0.50000000    -0.31910000
opls_167-2    O    0.87129994    0.46439991    0.50000000    -0.32390000
opls_167-3    O    0.59309000    0.46439991    0.50000000    -0.31920000
opls_167-4    O    0.87129988    0.40690997    0.50000000    -0.32340000
opls_167-5    O    0.53560000    0.12870002    0.50000000    -0.31920000
opls_167-6    O    0.44503016    0.61247010    0.50000000    -0.31910000
opls_167-7    O    0.38752994    0.83255992    0.50000000    -0.31670000
opls_167-8    O    0.16743990    0.55496998    0.50000000    -0.31670000
opls_167-9    O    0.38753009    0.55496998    0.50000000    -0.31670000
opls_167-10    O    0.16743994    0.61247010    0.50000000    -0.31920000
opls_167-11    O    0.44502997    0.83255992    0.50000000    -0.31920000
opls_166-12    C    0.56470009    0.40320995    0.50000000    0.18560000
opls_166-13    C    0.59679017    0.16150013    0.50000000    0.18560000
opls_166-14    C    0.83850995    0.43530009    0.50000000    0.18560000
opls_166-15    C    0.59679014    0.43530009    0.50000000    0.18560000
opls_166-16    C    0.83850986    0.40320995    0.50000000    0.18500000
opls_166-17    C    0.56469999    0.16150013    0.50000000    0.18500000
opls_145-18    C    0.56302987    0.37104994    0.50000000    -0.21090000
opls_145-19    C    0.62895006    0.19197999    0.50000000    -0.21090000
opls_145-20    C    0.80802007    0.43697007    0.50000000    -0.21050000
opls_145-21    C    0.62895000    0.43697007    0.50000000    -0.21090000
opls_145-22    C    0.80802007    0.37104994    0.50000000    -0.21090000
opls_145-23    C    0.56302993    0.19197999    0.50000000    -0.21090000
opls_700-24    C    0.59536002    0.37212988    0.50000000    0.02770000
opls_700-25    C    0.62786991    0.22323997    0.50000000    0.02770000
opls_700-26    C    0.77675995    0.40464006    0.50000000    0.02770000
opls_700-27    C    0.62787014    0.40464006    0.50000000    0.02770000
opls_700-28    C    0.77675989    0.37212988    0.50000000    0.02770000
opls_700-29    C    0.59536009    0.22323997    0.50000000    0.02770000
opls_145-30    C    0.44522990    0.55477000    0.50000000    -0.24130000
opls_145-31    C    0.44523000    0.89045999    0.50000000    -0.24130000
opls_145-32    C    0.10954011    0.55477000    0.50000000    -0.24130000
opls_147-33    C    0.47996010    0.46278000    0.50000000    0.07760000
opls_147-34    C    0.53721993    0.01718003    0.50000000    0.07740000
opls_147-35    C    0.98281996    0.52003997    0.50000000    0.07760000
opls_147-36    C    0.53722001    0.52003997    0.50000000    0.07740000
opls_147-37    C    0.98281990    0.46278000    0.50000000    0.07740000
opls_147-38    C    0.47996009    0.01718003    0.50000000    0.07760000
opls_145-39    C    0.48226008    0.57452005    0.50000000    -0.15640000
opls_145-40    C    0.42547989    0.90772997    0.50000000    -0.15640000
opls_145-41    C    0.09227014    0.51774008    0.50000000    -0.15640000
opls_145-42    C    0.42548014    0.51774008    0.50000000    -0.15640000
opls_145-43    C    0.09226994    0.57452005    0.50000000    -0.15640000
opls_145-44    C    0.48226005    0.90772997    0.50000000    -0.15640000
opls_145-45    C    0.44264000    0.44356992    0.50000000    -0.12460000
opls_145-46    C    0.55642990    0.99906998    0.50000000    -0.12450000
opls_145-47    C    0.00093009    0.55736010    0.50000000    -0.12460000
opls_145-48    C    0.55643001    0.55736010    0.50000000    -0.12460000
opls_145-49    C    0.00092992    0.44356992    0.50000000    -0.12460000
opls_145-50    C    0.44264007    0.99906998    0.50000000    -0.12460000
opls_261-51    C    0.38589009    0.67946000    0.50000000    -0.00590000
opls_261-52    C    0.32054005    0.70644009    0.50000000    -0.00590000
opls_261-53    C    0.29356012    0.61411009    0.50000000    -0.00590000
opls_261-54    C    0.32054000    0.61411009    0.50000000    -0.00590000
opls_261-55    C    0.29355994    0.67946000    0.50000000    -0.00590000
opls_261-56    C    0.38589007    0.70644009    0.50000000    -0.00590000
opls_145-57    C    0.49943004    0.50058013    0.50000000    0.00780000
opls_145-58    C    0.49943006    0.99884992    0.50000000    0.00780000
opls_145-59    C    0.00114987    0.50056995    0.50000000    0.00780000
opls_166-60    C    0.41592996    0.61617012    0.50000000    0.18560000
opls_166-61    C    0.38382996    0.79976008    0.50000000    0.18570000
opls_166-62    C    0.20023999    0.58407007    0.50000000    0.18560000
opls_166-63    C    0.38383009    0.58407007    0.50000000    0.18570000
opls_166-64    C    0.20024016    0.61617012    0.50000000    0.18560000
opls_166-65    C    0.41593012    0.79976008    0.50000000    0.18560000
opls_145-66    C    0.41760018    0.64833013    0.50000000    -0.21070000
opls_145-67    C    0.35166994    0.76927995    0.50000000    -0.21070000
opls_145-68    C    0.23073010    0.58240010    0.50000000    -0.21090000
opls_145-69    C    0.35167000    0.58240010    0.50000000    -0.21070000
opls_145-70    C    0.23072995    0.64833013    0.50000000    -0.21090000
opls_145-71    C    0.41760004    0.76927995    0.50000000    -0.21070000
opls_700-72    C    0.38528001    0.64724002    0.50000000    0.02770000
opls_700-73    C    0.35276005    0.73803015    0.50000000    0.02770000
opls_700-74    C    0.26197005    0.61473011    0.50000000    0.02770000
opls_700-75    C    0.35276006    0.61473011    0.50000000    0.02770000
opls_700-76    C    0.26196998    0.64724002    0.50000000    0.02770000
opls_700-77    C    0.38528007    0.73803015    0.50000000    0.02770000
opls_145-78    C    0.53539993    0.46459989    0.50000000    -0.24120000
opls_145-79    C    0.53540012    0.07079004    0.50000000    -0.24120000
opls_145-80    C    0.92920993    0.46459989    0.50000000    -0.24120000
opls_147-81    C    0.50065999    0.55658990    0.50000000    0.07740000
opls_147-82    C    0.44340995    0.94407001    0.50000000    0.07760000
opls_147-83    C    0.05593006    0.49934009    0.50000000    0.07760000
opls_147-84    C    0.44341003    0.49934009    0.50000000    0.07750000
opls_147-85    C    0.05592991    0.55658990    0.50000000    0.07760000
opls_147-86    C    0.50066005    0.94407001    0.50000000    0.07760000
opls_145-87    C    0.49837011    0.44485011    0.50000000    -0.15640000
opls_145-88    C    0.55514999    0.05352007    0.50000000    -0.15630000
opls_145-89    C    0.94648003    0.50163009    0.50000000    -0.15640000
opls_145-90    C    0.55515006    0.50163009    0.50000000    -0.15630000
opls_145-91    C    0.94648000    0.44485011    0.50000000    -0.15630000
opls_145-92    C    0.49837007    0.05352007    0.50000000    -0.15640000
opls_145-93    C    0.53799004    0.57581014    0.50000000    -0.12460000
opls_145-94    C    0.42419001    0.96218006    0.50000000    -0.12460000
opls_145-95    C    0.03782008    0.46201006    0.50000000    -0.12460000
opls_145-96    C    0.42418999    0.46201006    0.50000000    -0.12460000
opls_145-97    C    0.03782010    0.57581014    0.50000000    -0.12450000
opls_145-98    C    0.53799005    0.96218006    0.50000000    -0.12460000
opls_261-99    C    0.59435992    0.31274000    0.50000000    -0.00620000
opls_261-100    C    0.68725991    0.28162004    0.50000000    -0.00620000
opls_261-101    C    0.71837994    0.40563996    0.50000000    -0.00620000
opls_261-102    C    0.68726002    0.40563996    0.50000000    -0.00620000
opls_261-103    C    0.71838009    0.31274000    0.50000000    -0.00620000
opls_261-104    C    0.59436013    0.28162004    0.50000000    -0.00620000
opls_261-105    C    0.59468997    0.33987992    0.50000000    -0.00590000
opls_261-106    C    0.66011997    0.25482012    0.50000000    -0.00590000
opls_261-107    C    0.74518008    0.40531014    0.50000000    -0.00590000
opls_261-108    C    0.66012009    0.40531014    0.50000000    -0.00590000
opls_261-109    C    0.74517997    0.33987992    0.50000000    -0.00590000
opls_261-110    C    0.59468995    0.25482012    0.50000000    -0.00590000
opls_145-111    C    0.48120001    0.51879994    0.50000000    0.00770000
opls_145-112    C    0.48120006    0.96240012    0.50000000    0.00770000
opls_145-113    C    0.03759994    0.51879994    0.50000000    0.00770000
MOF2_B_2-114    B    0.55460007    0.44539999    0.50000000    0.59000000
MOF2_B_2-115    B    0.55459986    0.10920992    0.50000000    0.58950000
MOF2_B_2-116    B    0.89079992    0.44539999    0.50000000    0.58960000
MOF2_B_2-117    B    0.42602997    0.57398008    0.50000000    0.58950000
MOF2_B_2-118    B    0.42603011    0.85205002    0.50000000    0.58950000
MOF2_B_2-119    B    0.14795010    0.57398008    0.50000000    0.58960000
opls_146-120    H    0.53746987    0.34643988    0.50000000    0.12140000
opls_146-121    H    0.65356003    0.19104006    0.50000000    0.12060000
opls_146-122    H    0.80895999    0.46252996    0.50000000    0.11920000
opls_146-123    H    0.65356000    0.46252996    0.50000000    0.12150000
opls_146-124    H    0.80896005    0.34643988    0.50000000    0.12060000
opls_146-125    H    0.53747007    0.19104006    0.50000000    0.11920000
opls_146-126    H    0.49667010    0.60366003    0.50000000    0.11220000
opls_146-127    H    0.39634001    0.89300993    0.50000000    0.11220000
opls_146-128    H    0.10699013    0.50333005    0.50000000    0.11260000
opls_146-129    H    0.39633992    0.50333005    0.50000000    0.11220000
opls_146-130    H    0.10698993    0.60366003    0.50000000    0.11220000
opls_146-131    H    0.49666992    0.89300993    0.50000000    0.11260000
opls_146-132    H    0.42792990    0.41454988    0.50000000    0.11900000
opls_146-133    H    0.58545017    0.01338015    0.50000000    0.12000000
opls_146-134    H    0.98661993    0.57206997    0.50000000    0.11900000
opls_146-135    H    0.58545004    0.57206997    0.50000000    0.11910000
opls_146-136    H    0.98661998    0.41454988    0.50000000    0.11900000
opls_146-137    H    0.42792998    0.01338015    0.50000000    0.12000000
opls_146-138    H    0.44316003    0.67295009    0.50000000    0.11920000
opls_146-139    H    0.32705989    0.77020997    0.50000000    0.12070000
opls_146-140    H    0.22979005    0.55683994    0.50000000    0.11920000
opls_146-141    H    0.32705986    0.55683994    0.50000000    0.12150000
opls_146-142    H    0.22979006    0.67295009    0.50000000    0.11920000
opls_146-143    H    0.44316005    0.77020997    0.50000000    0.12080000
opls_146-144    H    0.48395995    0.41572004    0.50000000    0.11260000
opls_146-145    H    0.58428014    0.06824011    0.50000000    0.11260000
opls_146-146    H    0.93176005    0.51604012    0.50000000    0.11260000
opls_146-147    H    0.58428007    0.51604012    0.50000000    0.11260000
opls_146-148    H    0.93176010    0.41572004    0.50000000    0.11270000
opls_146-149    H    0.48395996    0.06824011    0.50000000    0.11260000
opls_146-150    H    0.55268996    0.60482001    0.50000000    0.11770000
opls_146-151    H    0.39518008    0.94787015    0.50000000    0.11770000
opls_146-152    H    0.05213010    0.44731010    0.50000000    0.11770000
opls_146-153    H    0.39518000    0.44731010    0.50000000    0.11770000
opls_146-154    H    0.05213006    0.60482001    0.50000000    0.11770000
opls_146-155    H    0.55269008    0.94787015    0.50000000    0.11770000
