#======================================================================
# Crystal Data Generated By AuToFF
#----------------------------------------------------------------------

data_AuToFF_phase_1

_cell_length_a                         14.1430
_cell_length_b                         14.1430
_cell_length_c                         22.8250
_cell_angle_alpha                      90.00
_cell_angle_beta                       90.00
_cell_angle_gamma                      90.00
_symmetry_space_group_name_H-M_alt     'P 1'
_symmetry_space_group_IT_number        1

loop_
_space_group_symop_operation_xyz
   'x, y, z'

loop_
   _atom_site_label
   _atom_site_type_symbol
   _atom_site_fract_x
   _atom_site_fract_y
   _atom_site_fract_z
   _atom_site_charge
opls_700-0    C    0.05826982    0.06007000    0.04213012    0.05100000
opls_700-1    C    0.03594004    0.03706003    0.10052004    0.01660000
opls_145-2    C    0.12498975    0.12880011    0.02852004    -0.23510000
opls_166-3    C    0.17079969    0.17594994    0.07450997    0.19400000
opls_700-4    C    0.14909991    0.15362017    0.13402015    0.03680000
opls_145-5    C    0.08103019    0.08354027    0.14626988    -0.16970000
opls_261-6    C    0.19408966    0.19969031    0.18094984    -0.08990000
opls_261-7    C    0.22811002    0.23412996    0.22562015    -0.02140000
opls_181-8    C    0.26167998    0.26935021    0.00802979    -0.18770000
opls_700-9    C    0.94173018    0.93993000    0.04213012    0.05100000
opls_700-10    C    0.96405996    0.96293997    0.10052004    0.01660000
opls_145-11    C    0.87501025    0.87119989    0.02852004    -0.23510000
opls_166-12    C    0.82920031    0.82405006    0.07450997    0.19400000
opls_700-13    C    0.85090009    0.84637983    0.13402015    0.03680000
opls_145-14    C    0.91896981    0.91645973    0.14626988    -0.16970000
opls_261-15    C    0.80591034    0.80030969    0.18094984    -0.08990000
opls_261-16    C    0.77188998    0.76587004    0.22562015    -0.02140000
opls_181-17    C    0.73832002    0.73064979    0.00802979    -0.18770000
opls_700-18    C    0.06007000    0.94173018    0.95786988    0.05100000
opls_700-19    C    0.03706003    0.96405996    0.89947996    0.01660000
opls_145-20    C    0.12880011    0.87501025    0.97147996    -0.23510000
opls_166-21    C    0.17594994    0.82920031    0.92549003    0.19400000
opls_700-22    C    0.15362017    0.85090009    0.86597985    0.03680000
opls_145-23    C    0.08354027    0.91896981    0.85373012    -0.16970000
opls_261-24    C    0.19969031    0.80591034    0.81905016    -0.08990000
opls_261-25    C    0.23412996    0.77188998    0.77437985    -0.02140000
opls_181-26    C    0.26935021    0.73832002    0.99197021    -0.18770000
opls_700-27    C    0.93993000    0.05826982    0.95786988    0.05100000
opls_700-28    C    0.96293997    0.03594004    0.89947996    0.01660000
opls_145-29    C    0.87119989    0.12498975    0.97147996    -0.23510000
opls_166-30    C    0.82405006    0.17079969    0.92549003    0.19400000
opls_700-31    C    0.84637983    0.14909991    0.86597985    0.03680000
opls_145-32    C    0.91645973    0.08103019    0.85373012    -0.16970000
opls_261-33    C    0.80030969    0.19408966    0.81905016    -0.08990000
opls_261-34    C    0.76587004    0.22811002    0.77437985    -0.02140000
opls_181-35    C    0.73064979    0.26167998    0.99197021    -0.18770000
opls_700-36    C    0.55826982    0.43993000    0.54213012    0.05100000
opls_700-37    C    0.53594004    0.46293997    0.60052004    0.01660000
opls_145-38    C    0.62498975    0.37119989    0.52852004    -0.23510000
opls_166-39    C    0.67079969    0.32405006    0.57450997    0.19400000
opls_700-40    C    0.64909991    0.34637983    0.63402015    0.03680000
opls_145-41    C    0.58103019    0.41645973    0.64626988    -0.16970000
opls_261-42    C    0.69408966    0.30030969    0.68094984    -0.08990000
opls_261-43    C    0.72811002    0.26587004    0.72562015    -0.02140000
opls_181-44    C    0.76167998    0.23064979    0.50802979    -0.18770000
opls_700-45    C    0.44173018    0.56007000    0.54213012    0.05100000
opls_700-46    C    0.46405996    0.53706003    0.60052004    0.01660000
opls_145-47    C    0.37501025    0.62880011    0.52852004    -0.23510000
opls_166-48    C    0.32920031    0.67594994    0.57450997    0.19400000
opls_700-49    C    0.35090009    0.65362017    0.63402015    0.03680000
opls_145-50    C    0.41896981    0.58354027    0.64626988    -0.16960000
opls_261-51    C    0.30591034    0.69969031    0.68094984    -0.08990000
opls_261-52    C    0.27188998    0.73412996    0.72562015    -0.02140000
opls_181-53    C    0.23832002    0.76935021    0.50802979    -0.18770000
opls_700-54    C    0.56007000    0.55826982    0.45786988    0.05100000
opls_700-55    C    0.53706003    0.53594004    0.39947996    0.01660000
opls_145-56    C    0.62880011    0.62498975    0.47147996    -0.23510000
opls_166-57    C    0.67594994    0.67079969    0.42549003    0.19400000
opls_700-58    C    0.65362017    0.64909991    0.36597985    0.03680000
opls_145-59    C    0.58354027    0.58103019    0.35373012    -0.16970000
opls_261-60    C    0.69969031    0.69408966    0.31905016    -0.08990000
opls_261-61    C    0.73412996    0.72811002    0.27437985    -0.02140000
opls_181-62    C    0.76935021    0.76167998    0.49197021    -0.18770000
opls_700-63    C    0.43993000    0.44173018    0.45786988    0.05100000
opls_700-64    C    0.46293997    0.46405996    0.39947996    0.01660000
opls_145-65    C    0.37119989    0.37501025    0.47147996    -0.23490000
opls_166-66    C    0.32405006    0.32920031    0.42549003    0.19400000
opls_700-67    C    0.34637983    0.35090009    0.36597985    0.03680000
opls_145-68    C    0.41645973    0.41896981    0.35373012    -0.16970000
opls_261-69    C    0.30030969    0.30591034    0.31905016    -0.08990000
opls_261-70    C    0.26587004    0.27188998    0.27437985    -0.02140000
opls_181-71    C    0.23064979    0.23832002    0.49197021    -0.18760000
opls_701-72    C    0.00000000    0.00000000    0.00000000    0.01530000
opls_701-73    C    0.50000000    0.50000000    0.50000000    0.01530000
opls_179-74    O    0.23734993    0.24439016    0.06677985    -0.11970000
opls_179-75    O    0.76265007    0.75560984    0.06677985    -0.11970000
opls_179-76    O    0.24439016    0.76265007    0.93322015    -0.11970000
opls_179-77    O    0.75560984    0.23734993    0.93322015    -0.11960000
opls_179-78    O    0.73734993    0.25560984    0.56677985    -0.11970000
opls_179-79    O    0.26265007    0.74439016    0.56677985    -0.11970000
opls_179-80    O    0.74439016    0.73734993    0.43322015    -0.11970000
opls_179-81    O    0.25560984    0.26265007    0.43322015    -0.11970000
opls_146-82    H    0.14090999    0.14519975    0.98296999    0.10770000
opls_146-83    H    0.06533974    0.06736972    0.19192990    0.10580000
opls_185-84    H    0.31557025    0.32457965    0.01186988    0.11670000
opls_185-85    H    0.29105989    0.20840981    0.98408981    0.09560000
opls_185-86    H    0.20001980    0.29725023    0.98410997    0.09550000
opls_146-87    H    0.85909001    0.85480025    0.98296999    0.10770000
opls_146-88    H    0.93466026    0.93263028    0.19192990    0.10580000
opls_185-89    H    0.68442975    0.67542035    0.01186988    0.11670000
opls_185-90    H    0.70894011    0.79159019    0.98408981    0.09550000
opls_185-91    H    0.79998020    0.70274977    0.98410997    0.09550000
opls_146-92    H    0.14519975    0.85909001    0.01703001    0.10770000
opls_146-93    H    0.06736972    0.93466026    0.80807010    0.10580000
opls_185-94    H    0.32457965    0.68442975    0.98813012    0.11670000
opls_185-95    H    0.20840981    0.70894011    0.01591019    0.09550000
opls_185-96    H    0.29725023    0.79998020    0.01589003    0.09550000
opls_146-97    H    0.85480025    0.14090999    0.01703001    0.10770000
opls_146-98    H    0.93263028    0.06533974    0.80807010    0.10580000
opls_185-99    H    0.67542035    0.31557025    0.98813012    0.11670000
opls_185-100    H    0.79159019    0.29105989    0.01591019    0.09550000
opls_185-101    H    0.70274977    0.20001980    0.01589003    0.09550000
opls_146-102    H    0.64090999    0.35480025    0.48296999    0.10770000
opls_146-103    H    0.56533974    0.43263028    0.69192990    0.10580000
opls_185-104    H    0.81557025    0.17542035    0.51186988    0.11670000
opls_185-105    H    0.79105989    0.29159019    0.48408981    0.09550000
opls_185-106    H    0.70001980    0.20274977    0.48410997    0.09550000
opls_146-107    H    0.35909001    0.64519975    0.48296999    0.10770000
opls_146-108    H    0.43466026    0.56736972    0.69192990    0.10580000
opls_185-109    H    0.18442975    0.82457965    0.51186988    0.11670000
opls_185-110    H    0.20894011    0.70840981    0.48408981    0.09550000
opls_185-111    H    0.29998020    0.79725023    0.48410997    0.09550000
opls_146-112    H    0.64519975    0.64090999    0.51703001    0.10770000
opls_146-113    H    0.56736972    0.56533974    0.30807010    0.10580000
opls_185-114    H    0.82457965    0.81557025    0.48813012    0.11670000
opls_185-115    H    0.70840981    0.79105989    0.51591019    0.09550000
opls_185-116    H    0.79725023    0.70001980    0.51589003    0.09550000
opls_146-117    H    0.35480025    0.35909001    0.51703001    0.10770000
opls_146-118    H    0.43263028    0.43466026    0.30807010    0.10580000
opls_185-119    H    0.17542035    0.18442975    0.48813012    0.11670000
opls_185-120    H    0.29159019    0.20894011    0.51591019    0.09550000
opls_185-121    H    0.20274977    0.29998020    0.51589003    0.09550000
