#======================================================================
# Crystal Data Generated By AuToFF
#----------------------------------------------------------------------

data_AuToFF_phase_1

_cell_length_a                         30.6300
_cell_length_b                         30.6300
_cell_length_c                         20.2300
_cell_angle_alpha                      90.00
_cell_angle_beta                       90.00
_cell_angle_gamma                      90.00
_symmetry_space_group_name_H-M_alt     'P 1'
_symmetry_space_group_IT_number        1

loop_
_space_group_symop_operation_xyz
   'x, y, z'

loop_
   _atom_site_label
   _atom_site_type_symbol
   _atom_site_fract_x
   _atom_site_fract_y
   _atom_site_fract_z
   _atom_site_charge
opls_145-0    C    0.03947992    0.86601012    0.84178003    -0.16610000
opls_145-1    C    0.03955991    0.90128991    0.88556995    -0.12770000
opls_145-2    C    0.53960007    0.23228012    0.10320020    -0.12080000
opls_145-3    C    0.53947992    0.36601012    0.34178003    -0.16610000
opls_145-4    C    0.53955991    0.40128991    0.38556995    -0.12770000
opls_145-5    C    0.03960007    0.73228012    0.60320020    -0.12080000
opls_145-6    C    0.46052008    0.63398988    0.34178003    -0.16610000
opls_145-7    C    0.46044009    0.59871009    0.38556995    -0.12770000
opls_145-8    C    0.96039993    0.26771988    0.60320020    -0.12080000
opls_145-9    C    0.96052008    0.13398988    0.84178003    -0.16610000
opls_145-10    C    0.96044009    0.09871009    0.88556995    -0.12770000
opls_145-11    C    0.46039993    0.76771988    0.10320020    -0.12080000
opls_145-12    C    0.13398988    0.53947992    0.09178003    -0.16610000
opls_145-13    C    0.09871009    0.53955991    0.13556995    -0.12770000
opls_145-14    C    0.76771988    0.03960007    0.35320020    -0.12080000
opls_145-15    C    0.63398988    0.03947992    0.59178003    -0.16610000
opls_145-16    C    0.59871009    0.03955991    0.63556995    -0.12770000
opls_145-17    C    0.26771988    0.53960007    0.85320020    -0.12080000
opls_145-18    C    0.36601012    0.96052008    0.59178003    -0.16610000
opls_145-19    C    0.40128991    0.96044009    0.63556995    -0.12770000
opls_145-20    C    0.73228012    0.46039993    0.85320020    -0.12070000
opls_145-21    C    0.86601012    0.46052008    0.09178003    -0.16610000
opls_145-22    C    0.90128991    0.46044009    0.13556995    -0.12770000
opls_145-23    C    0.23228012    0.96039993    0.35320020    -0.12080000
opls_145-24    C    0.46052008    0.86601012    0.90821997    -0.16610000
opls_145-25    C    0.46044009    0.90128991    0.86443005    -0.12760000
opls_145-26    C    0.96039993    0.23228012    0.64679980    -0.12080000
opls_145-27    C    0.96052008    0.36601012    0.40821997    -0.16610000
opls_145-28    C    0.96044009    0.40128991    0.36443005    -0.12770000
opls_145-29    C    0.46039993    0.73228012    0.14679980    -0.12080000
opls_145-30    C    0.03947992    0.63398988    0.40821997    -0.16610000
opls_145-31    C    0.03955991    0.59871009    0.36443005    -0.12770000
opls_145-32    C    0.53960007    0.26771988    0.14679980    -0.12080000
opls_145-33    C    0.53947992    0.13398988    0.90821997    -0.16610000
opls_145-34    C    0.53955991    0.09871009    0.86443005    -0.12770000
opls_145-35    C    0.03960007    0.76771988    0.64679980    -0.12080000
opls_145-36    C    0.36601012    0.53947992    0.65821997    -0.16610000
opls_145-37    C    0.40128991    0.53955991    0.61443005    -0.12770000
opls_145-38    C    0.73228012    0.03960007    0.39679980    -0.12080000
opls_145-39    C    0.86601012    0.03947992    0.15821997    -0.16610000
opls_145-40    C    0.90128991    0.03955991    0.11443005    -0.12770000
opls_145-41    C    0.23228012    0.53960007    0.89679980    -0.12080000
opls_145-42    C    0.13398988    0.96052008    0.15821997    -0.16610000
opls_145-43    C    0.09871009    0.96044009    0.11443005    -0.12770000
opls_145-44    C    0.76771988    0.46039993    0.89679980    -0.12080000
opls_145-45    C    0.63398988    0.46052008    0.65821997    -0.16610000
opls_145-46    C    0.59871009    0.46044009    0.61443005    -0.12770000
opls_145-47    C    0.26771988    0.96039993    0.39679980    -0.12080000
opls_145-48    C    0.96052008    0.63398988    0.40821997    -0.16610000
opls_145-49    C    0.96044009    0.59871009    0.36443005    -0.12770000
opls_145-50    C    0.46039993    0.26771988    0.14679980    -0.12080000
opls_145-51    C    0.46052008    0.13398988    0.90821997    -0.16610000
opls_145-52    C    0.46044009    0.09871009    0.86443005    -0.12770000
opls_145-53    C    0.96039993    0.76771988    0.64679980    -0.12080000
opls_145-54    C    0.53947992    0.86601012    0.90821997    -0.16610000
opls_145-55    C    0.53955991    0.90128991    0.86443005    -0.12770000
opls_145-56    C    0.03960007    0.23228012    0.64679980    -0.12080000
opls_145-57    C    0.03947992    0.36601012    0.40821997    -0.16610000
opls_145-58    C    0.03955991    0.40128991    0.36443005    -0.12770000
opls_145-59    C    0.53960007    0.73228012    0.14679980    -0.12080000
opls_145-60    C    0.86601012    0.96052008    0.15821997    -0.16610000
opls_145-61    C    0.90128991    0.96044009    0.11443005    -0.12770000
opls_145-62    C    0.23228012    0.46039993    0.89679980    -0.12080000
opls_145-63    C    0.36601012    0.46052008    0.65821997    -0.16610000
opls_145-64    C    0.40128991    0.46044009    0.61443005    -0.12770000
opls_145-65    C    0.73228012    0.96039993    0.39679980    -0.12080000
opls_145-66    C    0.63398988    0.53947992    0.65821997    -0.16610000
opls_145-67    C    0.59871009    0.53955991    0.61443005    -0.12770000
opls_145-68    C    0.26771988    0.03960007    0.39679980    -0.12080000
opls_145-69    C    0.13398988    0.03947992    0.15821997    -0.16610000
opls_145-70    C    0.09871009    0.03955991    0.11443005    -0.12770000
opls_145-71    C    0.76771988    0.53960007    0.89679980    -0.12080000
opls_145-72    C    0.53947992    0.63398988    0.34178003    -0.16610000
opls_145-73    C    0.53955991    0.59871009    0.38556995    -0.12770000
opls_145-74    C    0.03960007    0.26771988    0.60320020    -0.12080000
opls_145-75    C    0.03947992    0.13398988    0.84178003    -0.16610000
opls_145-76    C    0.03955991    0.09871009    0.88556995    -0.12770000
opls_145-77    C    0.53960007    0.76771988    0.10320020    -0.12080000
opls_145-78    C    0.96052008    0.86601012    0.84178003    -0.16610000
opls_145-79    C    0.96044009    0.90128991    0.88556995    -0.12770000
opls_145-80    C    0.46039993    0.23228012    0.10320020    -0.12080000
opls_145-81    C    0.46052008    0.36601012    0.34178003    -0.16610000
opls_145-82    C    0.46044009    0.40128991    0.38556995    -0.12770000
opls_145-83    C    0.96039993    0.73228012    0.60320020    -0.12080000
opls_145-84    C    0.63398988    0.96052008    0.59178003    -0.16610000
opls_145-85    C    0.59871009    0.96044009    0.63556995    -0.12770000
opls_145-86    C    0.26771988    0.46039993    0.85320020    -0.12080000
opls_145-87    C    0.13398988    0.46052008    0.09178003    -0.16610000
opls_145-88    C    0.09871009    0.46044009    0.13556995    -0.12770000
opls_145-89    C    0.76771988    0.96039993    0.35320020    -0.12080000
opls_145-90    C    0.86601012    0.53947992    0.09178003    -0.16610000
opls_145-91    C    0.90128991    0.53955991    0.13556995    -0.12770000
opls_145-92    C    0.23228012    0.03960007    0.35320020    -0.12080000
opls_145-93    C    0.36601012    0.03947992    0.59178003    -0.16610000
opls_145-94    C    0.40128991    0.03955991    0.63556995    -0.12770000
opls_145-95    C    0.73228012    0.53960007    0.85320020    -0.12080000
opls_700-96    C    1.00000000    0.91903004    0.90935986    0.06530000
opls_261-97    C    1.00000000    0.82071988    0.71169006    0.23990000
opls_145-98    C    1.00000000    0.15168005    0.81970984    0.22400000
opls_701-99    C    1.00000000    0.45868005    0.29504993    0.00960000
opls_700-100    C    1.00000000    0.28547013    0.58116016    -0.00290000
opls_700-101    C    0.50000000    0.41903004    0.40935986    0.06530000
opls_261-102    C    0.50000000    0.32071988    0.21169006    0.23990000
opls_145-103    C    0.50000000    0.65168005    0.31970984    0.22400000
opls_701-104    C    0.50000000    0.95868005    0.79504993    0.00960000
opls_700-105    C    0.50000000    0.78547013    0.08116016    -0.00290000
opls_700-106    C    0.50000000    0.58096996    0.40935986    0.06530000
opls_261-107    C    0.50000000    0.67928012    0.21169006    0.23990000
opls_145-108    C    0.50000000    0.34831995    0.31970984    0.22400000
opls_701-109    C    0.50000000    0.04131995    0.79504993    0.00960000
opls_700-110    C    0.50000000    0.21452987    0.08116016    -0.00290000
opls_700-111    C    1.00000000    0.08096996    0.90935986    0.06530000
opls_261-112    C    0.00000000    0.17928012    0.71169006    0.23990000
opls_145-113    C    1.00000000    0.84831995    0.81970984    0.22400000
opls_701-114    C    1.00000000    0.54131995    0.29504993    0.00960000
opls_700-115    C    1.00000000    0.71452987    0.58116016    -0.00290000
opls_700-116    C    0.08096996    0.50000000    0.15935986    0.06530000
opls_261-117    C    0.17928012    0.50000000    0.96169006    0.24000000
opls_145-118    C    0.84831995    0.50000000    0.06970984    0.22400000
opls_701-119    C    0.54131995    0.50000000    0.54504993    0.00960000
opls_700-120    C    0.71452987    0.50000000    0.83116016    -0.00290000
opls_700-121    C    0.41903004    1.00000000    0.65935986    0.06530000
opls_261-122    C    0.32071988    0.00000000    0.46169006    0.23990000
opls_145-123    C    0.65168005    1.00000000    0.56970984    0.22400000
opls_701-124    C    0.95868005    1.00000000    0.04504993    0.00960000
opls_700-125    C    0.78547013    0.00000000    0.33116016    -0.00290000
opls_700-126    C    0.50000000    0.91903004    0.84064014    0.06530000
opls_261-127    C    0.50000000    0.82071988    0.03830994    0.23990000
opls_145-128    C    0.50000000    0.15168005    0.93029016    0.22400000
opls_701-129    C    0.50000000    0.45868005    0.45495007    0.00960000
opls_700-130    C    0.50000000    0.28547013    0.16883984    -0.00290000
opls_700-131    C    0.00000000    0.41903004    0.34064014    0.06530000
opls_261-132    C    1.00000000    0.32071988    0.53830994    0.24000000
opls_145-133    C    0.00000000    0.65168005    0.43029016    0.22400000
opls_701-134    C    1.00000000    0.95868005    0.95495007    0.00960000
opls_700-135    C    1.00000000    0.78547013    0.66883984    -0.00290000
opls_700-136    C    1.00000000    0.58096996    0.34064014    0.06530000
opls_261-137    C    1.00000000    0.67928012    0.53830994    0.24000000
opls_145-138    C    1.00000000    0.34831995    0.43029016    0.22400000
opls_701-139    C    0.00000000    0.04131995    0.95495007    0.00960000
opls_700-140    C    1.00000000    0.21452987    0.66883984    -0.00290000
opls_700-141    C    0.50000000    0.08096996    0.84064014    0.06530000
opls_261-142    C    0.50000000    0.17928012    0.03830994    0.23990000
opls_145-143    C    0.50000000    0.84831995    0.93029016    0.22400000
opls_701-144    C    0.50000000    0.54131995    0.45495007    0.00960000
opls_700-145    C    0.50000000    0.71452987    0.16883984    -0.00290000
opls_700-146    C    0.41903004    0.50000000    0.59064014    0.06530000
opls_261-147    C    0.32071988    0.50000000    0.78830994    0.23990000
opls_145-148    C    0.65168005    0.50000000    0.68029016    0.22400000
opls_701-149    C    0.95868005    0.50000000    0.20495007    0.00960000
opls_700-150    C    0.78547013    0.50000000    0.91883984    -0.00290000
opls_700-151    C    0.08096996    0.00000000    0.09064014    0.06530000
opls_261-152    C    0.17928012    1.00000000    0.28830994    0.23990000
opls_145-153    C    0.84831995    1.00000000    0.18029016    0.22400000
opls_701-154    C    0.54131995    0.00000000    0.70495007    0.00960000
opls_700-155    C    0.71452987    1.00000000    0.41883984    -0.00290000
opls_700-156    C    0.91903004    0.00000000    0.09064014    0.06530000
opls_261-157    C    0.82071988    1.00000000    0.28830994    0.23990000
opls_145-158    C    0.15168005    1.00000000    0.18029016    0.22400000
opls_701-159    C    0.45868005    0.00000000    0.70495007    0.00960000
opls_700-160    C    0.28547013    1.00000000    0.41883984    -0.00290000
opls_700-161    C    0.58096996    0.50000000    0.59064014    0.06530000
opls_261-162    C    0.67928012    0.50000000    0.78830994    0.23990000
opls_145-163    C    0.34831995    0.50000000    0.68029016    0.22400000
opls_701-164    C    0.04131995    0.50000000    0.20495007    0.00960000
opls_700-165    C    0.21452987    0.50000000    0.91883984    -0.00290000
opls_700-166    C    0.58096996    1.00000000    0.65935986    0.06530000
opls_261-167    C    0.67928012    0.00000000    0.46169006    0.23990000
opls_145-168    C    0.34831995    1.00000000    0.56970984    0.22400000
opls_701-169    C    0.04131995    1.00000000    0.04504993    0.00960000
opls_700-170    C    0.21452987    0.00000000    0.33116016    -0.00290000
opls_700-171    C    0.91903004    0.50000000    0.15935986    0.06530000
opls_261-172    C    0.82071988    0.50000000    0.96169006    0.24000000
opls_145-173    C    0.15168005    0.50000000    0.06970984    0.22400000
opls_701-174    C    0.45868005    0.50000000    0.54504993    0.00960000
opls_700-175    C    0.28547013    0.50000000    0.83116016    -0.00290000
opls_261-176    C    0.54068005    0.95931995    0.75000000    -0.07670000
opls_261-177    C    0.95931995    0.54068005    0.25000000    -0.07670000
opls_261-178    C    0.04068005    0.04068005    0.00000000    -0.07660000
opls_261-179    C    0.45931995    0.45931995    0.50000000    -0.07670000
opls_261-180    C    0.95931995    0.95931995    0.00000000    -0.07670000
opls_261-181    C    0.54068005    0.54068005    0.50000000    -0.07660000
opls_261-182    C    0.45931995    0.04068005    0.75000000    -0.07670000
opls_261-183    C    0.04068005    0.45931995    0.25000000    -0.07670000
opls_261-184    C    0.45931995    0.54068005    0.50000000    -0.07670000
opls_261-185    C    0.04068005    0.95931995    0.00000000    -0.07670000
opls_261-186    C    0.95931995    0.45931995    0.25000000    -0.07670000
opls_261-187    C    0.54068005    0.04068005    0.75000000    -0.07670000
opls_261-188    C    0.04068005    0.54068005    0.25000000    -0.07670000
opls_261-189    C    0.45931995    0.95931995    0.75000000    -0.07670000
opls_261-190    C    0.54068005    0.45931995    0.50000000    -0.07670000
opls_261-191    C    0.95931995    0.04068005    0.00000000    -0.07660000
opls_261-192    C    1.00000000    0.50000000    0.33799011    -0.07700000
opls_261-193    C    0.50000000    1.00000000    0.83799011    -0.07700000
opls_261-194    C    0.50000000    0.50000000    0.58799011    -0.07700000
opls_261-195    C    1.00000000    1.00000000    0.08799011    -0.07700000
opls_261-196    C    0.50000000    0.50000000    0.41200989    -0.07700000
opls_261-197    C    1.00000000    1.00000000    0.91200989    -0.07700000
opls_261-198    C    1.00000000    0.50000000    0.16200989    -0.07700000
opls_261-199    C    0.50000000    0.00000000    0.66200989    -0.07700000
opls_146-200    H    0.07020992    0.85271988    0.82453979    0.11920000
opls_146-201    H    0.07069997    0.91484003    0.90033020    0.12410000
opls_146-202    H    0.57044989    0.21882011    0.08666980    0.12270000
opls_146-203    H    0.57020992    0.35271988    0.32453979    0.11920000
opls_146-204    H    0.57069997    0.41484003    0.40033020    0.12410000
opls_146-205    H    0.07044989    0.71882011    0.58666980    0.12270000
opls_146-206    H    0.42979008    0.64728012    0.32453979    0.11930000
opls_146-207    H    0.42930003    0.58515997    0.40033020    0.12410000
opls_146-208    H    0.92955011    0.28117989    0.58666980    0.12270000
opls_146-209    H    0.92979008    0.14728012    0.82453979    0.11920000
opls_146-210    H    0.92930003    0.08515997    0.90033020    0.12410000
opls_146-211    H    0.42955011    0.78117989    0.08666980    0.12270000
opls_146-212    H    0.14728012    0.57020992    0.07453979    0.11920000
opls_146-213    H    0.08515997    0.57069997    0.15033020    0.12410000
opls_146-214    H    0.78117989    0.07044989    0.33666980    0.12270000
opls_146-215    H    0.64728012    0.07020992    0.57453979    0.11920000
opls_146-216    H    0.58515997    0.07069997    0.65033020    0.12410000
opls_146-217    H    0.28117989    0.57044989    0.83666980    0.12270000
opls_146-218    H    0.35271988    0.92979008    0.57453979    0.11920000
opls_146-219    H    0.41484003    0.92930003    0.65033020    0.12410000
opls_146-220    H    0.71882011    0.42955011    0.83666980    0.12280000
opls_146-221    H    0.85271988    0.42979008    0.07453979    0.11920000
opls_146-222    H    0.91484003    0.42930003    0.15033020    0.12410000
opls_146-223    H    0.21882011    0.92955011    0.33666980    0.12270000
opls_146-224    H    0.42979008    0.85271988    0.92546021    0.11920000
opls_146-225    H    0.42930003    0.91484003    0.84966980    0.12410000
opls_146-226    H    0.92955011    0.21882011    0.66333020    0.12270000
opls_146-227    H    0.92979008    0.35271988    0.42546021    0.11920000
opls_146-228    H    0.92930003    0.41484003    0.34966980    0.12410000
opls_146-229    H    0.42955011    0.71882011    0.16333020    0.12270000
opls_146-230    H    0.07020992    0.64728012    0.42546021    0.11920000
opls_146-231    H    0.07069997    0.58515997    0.34966980    0.12410000
opls_146-232    H    0.57044989    0.28117989    0.16333020    0.12270000
opls_146-233    H    0.57020992    0.14728012    0.92546021    0.11920000
opls_146-234    H    0.57069997    0.08515997    0.84966980    0.12410000
opls_146-235    H    0.07044989    0.78117989    0.66333020    0.12270000
opls_146-236    H    0.35271988    0.57020992    0.67546021    0.11920000
opls_146-237    H    0.41484003    0.57069997    0.59966980    0.12410000
opls_146-238    H    0.71882011    0.07044989    0.41333020    0.12270000
opls_146-239    H    0.85271988    0.07020992    0.17546021    0.11920000
opls_146-240    H    0.91484003    0.07069997    0.09966980    0.12410000
opls_146-241    H    0.21882011    0.57044989    0.91333020    0.12270000
opls_146-242    H    0.14728012    0.92979008    0.17546021    0.11920000
opls_146-243    H    0.08515997    0.92930003    0.09966980    0.12420000
opls_146-244    H    0.78117989    0.42955011    0.91333020    0.12270000
opls_146-245    H    0.64728012    0.42979008    0.67546021    0.11920000
opls_146-246    H    0.58515997    0.42930003    0.59966980    0.12410000
opls_146-247    H    0.28117989    0.92955011    0.41333020    0.12270000
opls_146-248    H    0.92979008    0.64728012    0.42546021    0.11920000
opls_146-249    H    0.92930003    0.58515997    0.34966980    0.12410000
opls_146-250    H    0.42955011    0.28117989    0.16333020    0.12270000
opls_146-251    H    0.42979008    0.14728012    0.92546021    0.11920000
opls_146-252    H    0.42930003    0.08515997    0.84966980    0.12410000
opls_146-253    H    0.92955011    0.78117989    0.66333020    0.12270000
opls_146-254    H    0.57020992    0.85271988    0.92546021    0.11920000
opls_146-255    H    0.57069997    0.91484003    0.84966980    0.12410000
opls_146-256    H    0.07044989    0.21882011    0.66333020    0.12270000
opls_146-257    H    0.07020992    0.35271988    0.42546021    0.11920000
opls_146-258    H    0.07069997    0.41484003    0.34966980    0.12410000
opls_146-259    H    0.57044989    0.71882011    0.16333020    0.12270000
opls_146-260    H    0.85271988    0.92979008    0.17546021    0.11920000
opls_146-261    H    0.91484003    0.92930003    0.09966980    0.12410000
opls_146-262    H    0.21882011    0.42955011    0.91333020    0.12270000
opls_146-263    H    0.35271988    0.42979008    0.67546021    0.11920000
opls_146-264    H    0.41484003    0.42930003    0.59966980    0.12410000
opls_146-265    H    0.71882011    0.92955011    0.41333020    0.12270000
opls_146-266    H    0.64728012    0.57020992    0.67546021    0.11920000
opls_146-267    H    0.58515997    0.57069997    0.59966980    0.12410000
opls_146-268    H    0.28117989    0.07044989    0.41333020    0.12270000
opls_146-269    H    0.14728012    0.07020992    0.17546021    0.11930000
opls_146-270    H    0.08515997    0.07069997    0.09966980    0.12410000
opls_146-271    H    0.78117989    0.57044989    0.91333020    0.12270000
opls_146-272    H    0.57020992    0.64728012    0.32453979    0.11920000
opls_146-273    H    0.57069997    0.58515997    0.40033020    0.12410000
opls_146-274    H    0.07044989    0.28117989    0.58666980    0.12270000
opls_146-275    H    0.07020992    0.14728012    0.82453979    0.11920000
opls_146-276    H    0.07069997    0.08515997    0.90033020    0.12410000
opls_146-277    H    0.57044989    0.78117989    0.08666980    0.12270000
opls_146-278    H    0.92979008    0.85271988    0.82453979    0.11920000
opls_146-279    H    0.92930003    0.91484003    0.90033020    0.12410000
opls_146-280    H    0.42955011    0.21882011    0.08666980    0.12270000
opls_146-281    H    0.42979008    0.35271988    0.32453979    0.11920000
opls_146-282    H    0.42930003    0.41484003    0.40033020    0.12410000
opls_146-283    H    0.92955011    0.71882011    0.58666980    0.12270000
opls_146-284    H    0.64728012    0.92979008    0.57453979    0.11920000
opls_146-285    H    0.58515997    0.92930003    0.65033020    0.12410000
opls_146-286    H    0.28117989    0.42955011    0.83666980    0.12270000
opls_146-287    H    0.14728012    0.42979008    0.07453979    0.11920000
opls_146-288    H    0.08515997    0.42930003    0.15033020    0.12410000
opls_146-289    H    0.78117989    0.92955011    0.33666980    0.12270000
opls_146-290    H    0.85271988    0.57020992    0.07453979    0.11920000
opls_146-291    H    0.91484003    0.57069997    0.15033020    0.12410000
opls_146-292    H    0.21882011    0.07044989    0.33666980    0.12270000
opls_146-293    H    0.35271988    0.07020992    0.57453979    0.11920000
opls_146-294    H    0.41484003    0.07069997    0.65033020    0.12410000
opls_146-295    H    0.71882011    0.57044989    0.83666980    0.12270000
opls_750-296    N    1.00000000    0.81417009    0.77759021    -0.32360000
opls_750-297    N    0.50000000    0.31417009    0.27759021    -0.32360000
opls_750-298    N    0.50000000    0.68582991    0.27759021    -0.32350000
opls_750-299    N    1.00000000    0.18582991    0.77759021    -0.32360000
opls_750-300    N    0.18582991    0.50000000    0.02759021    -0.32360000
opls_750-301    N    0.31417009    1.00000000    0.52759021    -0.32360000
opls_750-302    N    0.50000000    0.81417009    0.97240979    -0.32350000
opls_750-303    N    1.00000000    0.31417009    0.47240979    -0.32360000
opls_750-304    N    1.00000000    0.68582991    0.47240979    -0.32360000
opls_750-305    N    0.50000000    0.18582991    0.97240979    -0.32360000
opls_750-306    N    0.31417009    0.50000000    0.72240979    -0.32360000
opls_750-307    N    0.18582991    1.00000000    0.22240979    -0.32350000
opls_750-308    N    0.81417009    1.00000000    0.22240979    -0.32360000
opls_750-309    N    0.68582991    0.50000000    0.72240979    -0.32360000
opls_750-310    N    0.68582991    1.00000000    0.52759021    -0.32360000
opls_750-311    N    0.81417009    0.50000000    0.02759021    -0.32360000
