#======================================================================
# Crystal Data Generated By AuToFF
#----------------------------------------------------------------------

data_AuToFF_phase_1

_cell_length_a                         36.9500
_cell_length_b                         36.9500
_cell_length_c                         3.5400
_cell_angle_alpha                      90.00
_cell_angle_beta                       90.00
_cell_angle_gamma                      120.00
_symmetry_space_group_name_H-M_alt     'P 1'
_symmetry_space_group_IT_number        1

loop_
_space_group_symop_operation_xyz
   'x, y, z'

loop_
   _atom_site_label
   _atom_site_type_symbol
   _atom_site_fract_x
   _atom_site_fract_y
   _atom_site_fract_z
   _atom_site_charge
opls_700-0    C    0.70401994    0.37262013    0.50000000    0.02240000
opls_700-1    C    0.70580006    0.33493002    0.50000000    0.02180000
opls_145-2    C    0.74502000    0.33707004    0.50000000    -0.23600000
opls_166-3    C    0.78118980    0.37596985    0.50000000    0.15550000
opls_166-4    C    0.77947993    0.41221995    0.50000000    0.15580000
opls_145-5    C    0.74151006    0.41148994    0.50000000    -0.23510000
opls_567-6    C    0.89342998    0.45458011    0.50000000    -0.38140000
opls_567-7    C    0.96514005    0.50626007    0.50000000    -0.01010000
opls_716-8    C    0.95924987    0.46623993    0.50000000    0.06650000
opls_716-9    C    0.91794986    0.43603991    0.50000000    -0.16960000
opls_145-10    C    0.00511989    0.54128984    0.50000000    -0.23660000
opls_700-11    C    0.62738010    0.33139998    0.50000000    0.02240000
opls_700-12    C    0.66506997    0.37087011    0.50000000    0.02180000
opls_145-13    C    0.66293003    0.40794990    0.50000000    -0.23510000
opls_166-14    C    0.62402996    0.40521987    0.50000000    0.15550000
opls_166-15    C    0.58777997    0.36726007    0.50000000    0.15580000
opls_145-16    C    0.58850985    0.33001996    0.50000000    -0.23510000
opls_567-17    C    0.54542010    0.43884994    0.50000000    -0.38140000
opls_567-18    C    0.49374006    0.45887985    0.50000000    -0.01010000
opls_716-19    C    0.53375990    0.49300992    0.50000000    0.06650000
opls_716-20    C    0.56395993    0.48191011    0.50000000    -0.16960000
opls_145-21    C    0.45871008    0.46382991    0.50000000    -0.23550000
opls_700-22    C    0.66859996    0.29597989    0.50000000    0.02240000
opls_700-23    C    0.62912998    0.29419987    0.50000000    0.02180000
opls_145-24    C    0.59204997    0.25498006    0.50000000    -0.23510000
opls_166-25    C    0.59478008    0.21880996    0.50000000    0.15550000
opls_166-26    C    0.63274010    0.22051998    0.50000000    0.15580000
opls_145-27    C    0.66998010    0.25849010    0.50000000    -0.23510000
opls_567-28    C    0.56114993    0.10656995    0.50000000    -0.38140000
opls_567-29    C    0.54112016    0.03486008    0.50000000    -0.01010000
opls_716-30    C    0.50698996    0.04075015    0.50000000    0.06650000
opls_716-31    C    0.51808995    0.08204999    0.50000000    -0.16960000
opls_145-32    C    0.53616988    0.99487994    0.50000000    -0.23660000
opls_700-33    C    0.29598006    0.62737987    0.50000000    0.02240000
opls_700-34    C    0.29419994    0.66506998    0.50000000    0.02180000
opls_145-35    C    0.25498000    0.66292996    0.50000000    -0.23600000
opls_166-36    C    0.21881004    0.62402983    0.50000000    0.15550000
opls_166-37    C    0.22052007    0.58778005    0.50000000    0.15580000
opls_145-38    C    0.25848994    0.58851006    0.50000000    -0.23510000
opls_567-39    C    0.10657002    0.54541989    0.50000000    -0.38140000
opls_567-40    C    0.03485995    0.49373993    0.50000000    -0.01010000
opls_716-41    C    0.04075013    0.53376007    0.50000000    0.06650000
opls_716-42    C    0.08205014    0.56396009    0.50000000    -0.16960000
opls_145-43    C    0.99487996    0.45870985    0.50000000    -0.23550000
opls_700-44    C    0.37261990    0.66860002    0.50000000    0.02240000
opls_700-45    C    0.33493003    0.62912989    0.50000000    0.02180000
opls_145-46    C    0.33706997    0.59205010    0.50000000    -0.23510000
opls_166-47    C    0.37597004    0.59478013    0.50000000    0.15550000
opls_166-48    C    0.41222003    0.63273993    0.50000000    0.15580000
opls_145-49    C    0.41148988    0.66998004    0.50000000    -0.23510000
opls_567-50    C    0.45457990    0.56115006    0.50000000    -0.38140000
opls_567-51    C    0.50626005    0.54111984    0.50000000    -0.01010000
opls_716-52    C    0.46624010    0.50699008    0.50000000    0.06650000
opls_716-53    C    0.43604007    0.51808989    0.50000000    -0.16960000
opls_145-54    C    0.54128992    0.53617009    0.50000000    -0.23660000
opls_700-55    C    0.33140004    0.70402011    0.50000000    0.02240000
opls_700-56    C    0.37086987    0.70579982    0.50000000    0.02180000
opls_145-57    C    0.40795003    0.74501994    0.50000000    -0.23510000
opls_166-58    C    0.40521992    0.78119004    0.50000000    0.15550000
opls_166-59    C    0.36725990    0.77948002    0.50000000    0.15580000
opls_145-60    C    0.33001990    0.74150990    0.50000000    -0.23510000
opls_567-61    C    0.43885007    0.89343005    0.50000000    -0.38140000
opls_567-62    C    0.45887984    0.96513992    0.50000000    -0.01010000
opls_716-63    C    0.49301004    0.95924985    0.50000000    0.06650000
opls_716-64    C    0.48191005    0.91795001    0.50000000    -0.16960000
opls_145-65    C    0.46383012    0.00512006    0.50000000    -0.23660000
opls_167-66    O    0.81856998    0.44779004    0.50000000    -0.38230000
opls_167-67    O    0.82162993    0.38291993    0.50000000    -0.38230000
opls_167-68    O    0.55221008    0.37078011    0.50000000    -0.38240000
opls_167-69    O    0.61708000    0.43870994    0.50000000    -0.38240000
opls_167-70    O    0.62921993    0.18142985    0.50000000    -0.38240000
opls_167-71    O    0.56129007    0.17837013    0.50000000    -0.38240000
opls_167-72    O    0.18143002    0.55220996    0.50000000    -0.38240000
opls_167-73    O    0.17837007    0.61708007    0.50000000    -0.38240000
opls_167-74    O    0.44778992    0.62921989    0.50000000    -0.38220000
opls_167-75    O    0.38292000    0.56129006    0.50000000    -0.38240000
opls_167-76    O    0.37077991    0.81856983    0.50000000    -0.38240000
opls_167-77    O    0.43870993    0.82162987    0.50000000    -0.38230000
MOF2_B_2-78    B    0.84500002    0.42867014    0.50000000    0.52280000
MOF2_B_2-79    B    0.57133009    0.41633000    0.50000000    0.52290000
MOF2_B_2-80    B    0.58366989    0.15499987    0.50000000    0.52280000
MOF2_B_2-81    B    0.15499998    0.57132986    0.50000000    0.52280000
MOF2_B_2-82    B    0.42866991    0.58367000    0.50000000    0.52280000
MOF2_B_2-83    B    0.41632995    0.84499982    0.50000000    0.52290000
opls_633-84    S    0.92012017    0.50825009    0.50000000    0.19000000
opls_633-85    S    0.49174986    0.41186995    0.50000000    0.19000000
opls_633-86    S    0.58812997    0.07987996    0.50000000    0.19000000
opls_633-87    S    0.07987983    0.49174991    0.50000000    0.19000000
opls_633-88    S    0.50825014    0.58813005    0.50000000    0.19000000
opls_633-89    S    0.41187003    0.92012004    0.50000000    0.19000000
opls_146-90    H    0.75036991    0.31273008    0.50000000    0.22450000
opls_146-91    H    0.74437993    0.44022995    0.50000000    0.22470000
opls_570-92    H    0.90685980    0.40450986    0.50000000    0.22420000
opls_146-93    H    0.00933998    0.57080986    0.50000000    0.22420000
opls_146-94    H    0.68727990    0.43764992    0.50000000    0.22460000
opls_146-95    H    0.55976999    0.30414998    0.50000000    0.22470000
opls_570-96    H    0.59549003    0.50235003    0.50000000    0.22420000
opls_146-97    H    0.42919000    0.43852993    0.50000000    0.22420000
opls_146-98    H    0.56235005    0.24963000    0.50000000    0.22460000
opls_146-99    H    0.69585009    0.25562006    0.50000000    0.22470000
opls_570-100    H    0.49766018    0.09314011    0.50000000    0.22420000
opls_146-101    H    0.56146987    0.99065989    0.50000000    0.22420000
opls_146-102    H    0.24963009    0.68726992    0.50000000    0.22460000
opls_146-103    H    0.25562007    0.55977005    0.50000000    0.22470000
opls_570-104    H    0.09314004    0.59548982    0.50000000    0.22420000
opls_146-105    H    0.99065987    0.42918983    0.50000000    0.22420000
opls_146-106    H    0.31273011    0.56235008    0.50000000    0.22470000
opls_146-107    H    0.44023001    0.69585002    0.50000000    0.22470000
opls_570-108    H    0.40450997    0.49764997    0.50000000    0.22420000
opls_146-109    H    0.57081000    0.56147007    0.50000000    0.22420000
opls_146-110    H    0.43764995    0.75037000    0.50000000    0.22470000
opls_146-111    H    0.30414991    0.74437994    0.50000000    0.22470000
opls_570-112    H    0.50234984    0.90685989    0.50000000    0.22420000
opls_146-113    H    0.43853013    0.00934011    0.50000000    0.22420000
