#======================================================================
# Crystal Data Generated By AuToFF
#----------------------------------------------------------------------

data_AuToFF_phase_1

_cell_length_a                         27.9467
_cell_length_b                         27.9467
_cell_length_c                         74.7950
_cell_angle_alpha                      90.00
_cell_angle_beta                       90.00
_cell_angle_gamma                      90.00
_symmetry_space_group_name_H-M_alt     'P 1'
_symmetry_space_group_IT_number        1

loop_
_space_group_symop_operation_xyz
   'x, y, z'

loop_
   _atom_site_label
   _atom_site_type_symbol
   _atom_site_fract_x
   _atom_site_fract_y
   _atom_site_fract_z
   _atom_site_charge
opls_145-0    C    0.09371017    0.99991985    0.99193997    -0.17180000
opls_166-1    C    0.12922993    0.99989015    0.97773996    0.30770000
opls_700-2    C    0.11170013    0.99989015    0.95977004    -0.02900000
opls_145-3    C    0.05949003    0.99993989    0.95605000    -0.06040000
opls_700-4    C    0.02587998    0.99997996    0.97036994    -0.00100000
opls_700-5    C    0.04211982    0.99996994    0.98792994    0.06060000
opls_142-6    C    0.14825006    0.99988013    0.94494004    0.03760000
opls_145-7    C    0.14838997    0.99985007    0.89553994    -0.09580000
opls_145-8    C    0.18128008    0.99989015    0.88095996    -0.08480000
opls_700-9    C    0.23426988    0.99997996    0.88286998    0.07060000
opls_145-10    C    0.25318982    0.00002004    0.90091998    -0.08490000
opls_145-11    C    0.21975010    0.99997996    0.91543994    -0.10740000
opls_145-12    C    0.16742012    0.99989015    0.91288001    0.22220000
opls_181-13    C    0.49984005    0.69685008    0.50081997    -0.17930000
opls_701-14    C    0.00000000    0.00000000    0.00000000    -0.00720000
opls_145-15    C    0.40628983    0.50008015    0.49193997    -0.17180000
opls_166-16    C    0.37077007    0.50010985    0.47773996    0.30770000
opls_700-17    C    0.38829987    0.50010985    0.45977004    -0.02900000
opls_145-18    C    0.44050997    0.50006011    0.45605000    -0.06040000
opls_700-19    C    0.47412002    0.50002004    0.47036994    -0.00100000
opls_700-20    C    0.45787982    0.50003006    0.48792994    0.06060000
opls_142-21    C    0.35174994    0.50011987    0.44494004    0.03760000
opls_145-22    C    0.35161003    0.50014993    0.39553994    -0.09580000
opls_145-23    C    0.31871992    0.50010985    0.38095996    -0.08490000
opls_700-24    C    0.26573012    0.50002004    0.38286998    0.07060000
opls_145-25    C    0.24681018    0.49997996    0.40091998    -0.08490000
opls_145-26    C    0.28024990    0.50002004    0.41543994    -0.10740000
opls_145-27    C    0.33257988    0.50010985    0.41288001    0.22230000
opls_181-28    C    0.00015995    0.80314992    0.00081997    -0.17930000
opls_701-29    C    0.50000000    0.50000000    0.50000000    -0.00720000
opls_145-30    C    0.00008015    0.59371017    0.24193997    -0.17180000
opls_166-31    C    0.00010985    0.62922993    0.22773996    0.30780000
opls_700-32    C    0.00010985    0.61170013    0.20977004    -0.02900000
opls_145-33    C    0.00006011    0.55949003    0.20605000    -0.06040000
opls_700-34    C    0.00002004    0.52587998    0.22036994    -0.00100000
opls_700-35    C    0.00003006    0.54212018    0.23792994    0.06060000
opls_142-36    C    0.00011987    0.64825006    0.19494004    0.03760000
opls_145-37    C    0.00014993    0.64838997    0.14553994    -0.09580000
opls_145-38    C    0.00010985    0.68128008    0.13095996    -0.08490000
opls_700-39    C    0.00002004    0.73426988    0.13286998    0.07060000
opls_145-40    C    0.99997996    0.75318982    0.15091998    -0.08490000
opls_145-41    C    0.00002004    0.71975010    0.16543994    -0.10740000
opls_145-42    C    0.00010985    0.66742012    0.16288001    0.22220000
opls_181-43    C    0.30314992    0.99984005    0.75081997    -0.17930000
opls_701-44    C    0.00000000    0.50000000    0.25000000    -0.00720000
opls_145-45    C    0.49991985    0.90628983    0.74193997    -0.17170000
opls_166-46    C    0.49989015    0.87077007    0.72773996    0.30770000
opls_700-47    C    0.49989015    0.88829987    0.70977004    -0.02900000
opls_145-48    C    0.49993989    0.94050997    0.70605000    -0.06040000
opls_700-49    C    0.49997996    0.97412002    0.72036994    -0.00100000
opls_700-50    C    0.49996994    0.95787982    0.73792994    0.06060000
opls_142-51    C    0.49988013    0.85174994    0.69494004    0.03760000
opls_145-52    C    0.49985007    0.85161003    0.64553994    -0.09580000
opls_145-53    C    0.49989015    0.81871992    0.63095996    -0.08490000
opls_700-54    C    0.49997996    0.76573012    0.63286998    0.07060000
opls_145-55    C    0.50002004    0.74681018    0.65091998    -0.08480000
opls_145-56    C    0.49997996    0.78024990    0.66543994    -0.10740000
opls_145-57    C    0.49989015    0.83257988    0.66288001    0.22220000
opls_181-58    C    0.19685008    0.50015995    0.25081997    -0.17930000
opls_701-59    C    0.50000000    0.00000000    0.75000000    -0.00720000
opls_145-60    C    0.90628983    0.50008015    0.25806003    -0.17180000
opls_166-61    C    0.87077007    0.50010985    0.27226004    0.30770000
opls_700-62    C    0.88829987    0.50010985    0.29022996    -0.02900000
opls_145-63    C    0.94050997    0.50006011    0.29395000    -0.06040000
opls_700-64    C    0.97412002    0.50002004    0.27963006    -0.00100000
opls_700-65    C    0.95787982    0.50003006    0.26207006    0.06060000
opls_142-66    C    0.85174994    0.50011987    0.30505996    0.03760000
opls_145-67    C    0.85161003    0.50014993    0.35446006    -0.09580000
opls_145-68    C    0.81871992    0.50010985    0.36904004    -0.08490000
opls_700-69    C    0.76573012    0.50002004    0.36713002    0.07060000
opls_145-70    C    0.74681018    0.49997996    0.34908002    -0.08490000
opls_145-71    C    0.78024990    0.50002004    0.33456006    -0.10740000
opls_145-72    C    0.83257988    0.50010985    0.33711999    0.22220000
opls_181-73    C    0.50015995    0.80314992    0.74918003    -0.17930000
opls_145-74    C    0.59371017    0.99991985    0.75806003    -0.17180000
opls_166-75    C    0.62922993    0.99989015    0.77226004    0.30770000
opls_700-76    C    0.61170013    0.99989015    0.79022996    -0.02900000
opls_145-77    C    0.55949003    0.99993989    0.79395000    -0.06040000
opls_700-78    C    0.52587998    0.99997996    0.77963006    -0.00100000
opls_700-79    C    0.54212018    0.99996994    0.76207006    0.06060000
opls_142-80    C    0.64825006    0.99988013    0.80505996    0.03760000
opls_145-81    C    0.64838997    0.99985007    0.85446006    -0.09580000
opls_145-82    C    0.68128008    0.99989015    0.86904004    -0.08490000
opls_700-83    C    0.73426988    0.99997996    0.86713002    0.07060000
opls_145-84    C    0.75318982    0.00002004    0.84908002    -0.08490000
opls_145-85    C    0.71975010    0.99997996    0.83456006    -0.10740000
opls_145-86    C    0.66742012    0.99989015    0.83711999    0.22220000
opls_181-87    C    0.99984005    0.69685008    0.24918003    -0.17930000
opls_145-88    C    0.99991985    0.90628983    0.00806003    -0.17180000
opls_166-89    C    0.99989015    0.87077007    0.02226004    0.30770000
opls_700-90    C    0.99989015    0.88829987    0.04022996    -0.02900000
opls_145-91    C    0.99993989    0.94050997    0.04395000    -0.06040000
opls_700-92    C    0.99997996    0.97412002    0.02963006    -0.00100000
opls_700-93    C    0.99996994    0.95787982    0.01207006    0.06060000
opls_142-94    C    0.99988013    0.85174994    0.05505996    0.03760000
opls_145-95    C    0.99985007    0.85161003    0.10446006    -0.09580000
opls_145-96    C    0.99989015    0.81871992    0.11904004    -0.08490000
opls_700-97    C    0.99997996    0.76573012    0.11713002    0.07060000
opls_145-98    C    0.00002004    0.74681018    0.09908002    -0.08490000
opls_145-99    C    0.99997996    0.78024990    0.08456006    -0.10740000
opls_145-100    C    0.99989015    0.83257988    0.08711999    0.22230000
opls_181-101    C    0.69685008    0.50015995    0.49918003    -0.17930000
opls_145-102    C    0.50008015    0.59371017    0.50806003    -0.17180000
opls_166-103    C    0.50010985    0.62922993    0.52226004    0.30770000
opls_700-104    C    0.50010985    0.61170013    0.54022996    -0.02900000
opls_145-105    C    0.50006011    0.55949003    0.54395000    -0.06040000
opls_700-106    C    0.50002004    0.52587998    0.52963006    -0.00100000
opls_700-107    C    0.50003006    0.54212018    0.51207006    0.06060000
opls_142-108    C    0.50011987    0.64825006    0.55505996    0.03760000
opls_145-109    C    0.50014993    0.64838997    0.60446006    -0.09580000
opls_145-110    C    0.50010985    0.68128008    0.61904004    -0.08490000
opls_700-111    C    0.50002004    0.73426988    0.61713002    0.07060000
opls_145-112    C    0.49997996    0.75318982    0.59908002    -0.08490000
opls_145-113    C    0.50002004    0.71975010    0.58456006    -0.10740000
opls_145-114    C    0.50010985    0.66742012    0.58711999    0.22220000
opls_181-115    C    0.80314992    0.99984005    0.99918003    -0.17930000
opls_145-116    C    0.50008015    0.09371017    0.74193997    -0.17180000
opls_166-117    C    0.50010985    0.12922993    0.72773996    0.30770000
opls_700-118    C    0.50010985    0.11170013    0.70977004    -0.02900000
opls_145-119    C    0.50006011    0.05949003    0.70605000    -0.06040000
opls_700-120    C    0.50002004    0.02587998    0.72036994    -0.00100000
opls_700-121    C    0.50003006    0.04211982    0.73792994    0.06060000
opls_142-122    C    0.50011987    0.14825006    0.69494004    0.03760000
opls_145-123    C    0.50014993    0.14838997    0.64553994    -0.09580000
opls_145-124    C    0.50010985    0.18128008    0.63095996    -0.08490000
opls_700-125    C    0.50002004    0.23426988    0.63286998    0.07060000
opls_145-126    C    0.49997996    0.25318982    0.65091998    -0.08490000
opls_145-127    C    0.50002004    0.21975010    0.66543994    -0.10740000
opls_145-128    C    0.50010985    0.16742012    0.66288001    0.22220000
opls_181-129    C    0.80314992    0.49984005    0.25081997    -0.17930000
opls_145-130    C    0.99991985    0.40628983    0.24193997    -0.17180000
opls_166-131    C    0.99989015    0.37077007    0.22773996    0.30770000
opls_700-132    C    0.99989015    0.38829987    0.20977004    -0.02900000
opls_145-133    C    0.99993989    0.44050997    0.20605000    -0.06040000
opls_700-134    C    0.99997996    0.47412002    0.22036994    -0.00100000
opls_700-135    C    0.99996994    0.45787982    0.23792994    0.06060000
opls_142-136    C    0.99988013    0.35174994    0.19494004    0.03760000
opls_145-137    C    0.99985007    0.35161003    0.14553994    -0.09580000
opls_145-138    C    0.99989015    0.31871992    0.13095996    -0.08490000
opls_700-139    C    0.99997996    0.26573012    0.13286998    0.07060000
opls_145-140    C    0.00002004    0.24681018    0.15091998    -0.08490000
opls_145-141    C    0.99997996    0.28024990    0.16543994    -0.10740000
opls_145-142    C    0.99989015    0.33257988    0.16288001    0.22230000
opls_181-143    C    0.69685008    0.00015995    0.75081997    -0.17930000
opls_145-144    C    0.90628983    0.00008015    0.99193997    -0.17180000
opls_166-145    C    0.87077007    0.00010985    0.97773996    0.30770000
opls_700-146    C    0.88829987    0.00010985    0.95977004    -0.02900000
opls_145-147    C    0.94050997    0.00006011    0.95605000    -0.06040000
opls_700-148    C    0.97412002    0.00002004    0.97036994    -0.00100000
opls_700-149    C    0.95787982    0.00003006    0.98792994    0.06060000
opls_142-150    C    0.85174994    0.00011987    0.94494004    0.03760000
opls_145-151    C    0.85161003    0.00014993    0.89553994    -0.09580000
opls_145-152    C    0.81871992    0.00010985    0.88095996    -0.08490000
opls_700-153    C    0.76573012    0.00002004    0.88286998    0.07060000
opls_145-154    C    0.74681018    0.99997996    0.90091998    -0.08480000
opls_145-155    C    0.78024990    0.00002004    0.91543994    -0.10740000
opls_145-156    C    0.83257988    0.00010985    0.91288001    0.22230000
opls_181-157    C    0.50015995    0.30314992    0.50081997    -0.17930000
opls_145-158    C    0.59371017    0.49991985    0.49193997    -0.17180000
opls_166-159    C    0.62922993    0.49989015    0.47773996    0.30780000
opls_700-160    C    0.61170013    0.49989015    0.45977004    -0.02900000
opls_145-161    C    0.55949003    0.49993989    0.45605000    -0.06040000
opls_700-162    C    0.52587998    0.49997996    0.47036994    -0.00100000
opls_700-163    C    0.54212018    0.49996994    0.48792994    0.06060000
opls_142-164    C    0.64825006    0.49988013    0.44494004    0.03760000
opls_145-165    C    0.64838997    0.49985007    0.39553994    -0.09580000
opls_145-166    C    0.68128008    0.49989015    0.38095996    -0.08490000
opls_700-167    C    0.73426988    0.49997996    0.38286998    0.07060000
opls_145-168    C    0.75318982    0.50002004    0.40091998    -0.08490000
opls_145-169    C    0.71975010    0.49997996    0.41543994    -0.10740000
opls_145-170    C    0.66742012    0.49989015    0.41288001    0.22230000
opls_181-171    C    0.99984005    0.19685008    0.00081997    -0.17930000
opls_145-172    C    0.40628983    0.00008015    0.75806003    -0.17180000
opls_166-173    C    0.37077007    0.00010985    0.77226004    0.30770000
opls_700-174    C    0.38829987    0.00010985    0.79022996    -0.02900000
opls_145-175    C    0.44050997    0.00006011    0.79395000    -0.06040000
opls_700-176    C    0.47412002    0.00002004    0.77963006    -0.00100000
opls_700-177    C    0.45787982    0.00003006    0.76207006    0.06060000
opls_142-178    C    0.35174994    0.00011987    0.80505996    0.03760000
opls_145-179    C    0.35161003    0.00014993    0.85446006    -0.09580000
opls_145-180    C    0.31871992    0.00010985    0.86904004    -0.08490000
opls_700-181    C    0.26573012    0.00002004    0.86713002    0.07060000
opls_145-182    C    0.24681018    0.99997996    0.84908002    -0.08490000
opls_145-183    C    0.28024990    0.00002004    0.83456006    -0.10740000
opls_145-184    C    0.33257988    0.00010985    0.83711999    0.22220000
opls_181-185    C    0.00015995    0.30314992    0.24918003    -0.17930000
opls_145-186    C    0.09371017    0.49991985    0.25806003    -0.17180000
opls_166-187    C    0.12922993    0.49989015    0.27226004    0.30770000
opls_700-188    C    0.11170013    0.49989015    0.29022996    -0.02900000
opls_145-189    C    0.05949003    0.49993989    0.29395000    -0.06030000
opls_700-190    C    0.02587998    0.49997996    0.27963006    -0.00100000
opls_700-191    C    0.04211982    0.49996994    0.26207006    0.06060000
opls_142-192    C    0.14825006    0.49988013    0.30505996    0.03760000
opls_145-193    C    0.14838997    0.49985007    0.35446006    -0.09580000
opls_145-194    C    0.18128008    0.49989015    0.36904004    -0.08480000
opls_700-195    C    0.23426988    0.49997996    0.36713002    0.07060000
opls_145-196    C    0.25318982    0.50002004    0.34908002    -0.08490000
opls_145-197    C    0.21975010    0.49997996    0.33456006    -0.10740000
opls_145-198    C    0.16742012    0.49989015    0.33711999    0.22220000
opls_181-199    C    0.49984005    0.19685008    0.74918003    -0.17920000
opls_145-200    C    0.49991985    0.40628983    0.50806003    -0.17170000
opls_166-201    C    0.49989015    0.37077007    0.52226004    0.30770000
opls_700-202    C    0.49989015    0.38829987    0.54022996    -0.02900000
opls_145-203    C    0.49993989    0.44050997    0.54395000    -0.06040000
opls_700-204    C    0.49997996    0.47412002    0.52963006    -0.00100000
opls_700-205    C    0.49996994    0.45787982    0.51207006    0.06060000
opls_142-206    C    0.49988013    0.35174994    0.55505996    0.03760000
opls_145-207    C    0.49985007    0.35161003    0.60446006    -0.09580000
opls_145-208    C    0.49989015    0.31871992    0.61904004    -0.08480000
opls_700-209    C    0.49997996    0.26573012    0.61713002    0.07060000
opls_145-210    C    0.50002004    0.24681018    0.59908002    -0.08490000
opls_145-211    C    0.49997996    0.28024990    0.58456006    -0.10740000
opls_145-212    C    0.49989015    0.33257988    0.58711999    0.22220000
opls_181-213    C    0.19685008    0.00015995    0.99918003    -0.17930000
opls_145-214    C    0.00008015    0.09371017    0.00806003    -0.17180000
opls_166-215    C    0.00010985    0.12922993    0.02226004    0.30770000
opls_700-216    C    0.00010985    0.11170013    0.04022996    -0.02900000
opls_145-217    C    0.00006011    0.05949003    0.04395000    -0.06040000
opls_700-218    C    0.00002004    0.02587998    0.02963006    -0.00100000
opls_700-219    C    0.00003006    0.04211982    0.01207006    0.06060000
opls_142-220    C    0.00011987    0.14825006    0.05505996    0.03760000
opls_145-221    C    0.00014993    0.14838997    0.10446006    -0.09570000
opls_145-222    C    0.00010985    0.18128008    0.11904004    -0.08490000
opls_700-223    C    0.00002004    0.23426988    0.11713002    0.07060000
opls_145-224    C    0.99997996    0.25318982    0.09908002    -0.08490000
opls_145-225    C    0.00002004    0.21975010    0.08456006    -0.10740000
opls_145-226    C    0.00010985    0.16742012    0.08711999    0.22220000
opls_181-227    C    0.30314992    0.49984005    0.49918003    -0.17930000
opls_750-228    N    0.50012989    0.63297992    0.57234000    -0.20560000
opls_750-229    N    0.99987011    0.86702008    0.07234000    -0.20560000
opls_750-230    N    0.36702008    0.00012989    0.82234000    -0.20550000
opls_750-231    N    0.13297992    0.49987011    0.32234000    -0.20560000
opls_750-232    N    0.49987011    0.86702008    0.67766000    -0.20550000
opls_750-233    N    0.00012989    0.63297992    0.17766000    -0.20560000
opls_750-234    N    0.63297992    0.49987011    0.42766000    -0.20560000
opls_750-235    N    0.86702008    0.00012989    0.92766000    -0.20560000
opls_750-236    N    0.86702008    0.50012989    0.32234000    -0.20560000
opls_750-237    N    0.63297992    0.99987011    0.82234000    -0.20560000
opls_750-238    N    0.49987011    0.36702008    0.57234000    -0.20560000
opls_750-239    N    0.00012989    0.13297992    0.07234000    -0.20560000
opls_750-240    N    0.99987011    0.36702008    0.17766000    -0.20560000
opls_750-241    N    0.50012989    0.13297992    0.67766000    -0.20560000
opls_750-242    N    0.13297992    0.99987011    0.92766000    -0.20560000
opls_750-243    N    0.36702008    0.50012989    0.42766000    -0.20560000
opls_179-244    O    0.50020002    0.68173988    0.51913002    -0.19130000
opls_179-245    O    0.99979998    0.81826012    0.01913002    -0.19120000
opls_179-246    O    0.31826012    0.00020002    0.76913002    -0.19130000
opls_179-247    O    0.18173988    0.49979998    0.26913002    -0.19130000
opls_179-248    O    0.49979998    0.81826012    0.73086998    -0.19130000
opls_179-249    O    0.00020002    0.68173988    0.23086998    -0.19130000
opls_179-250    O    0.68173988    0.49979998    0.48086998    -0.19130000
opls_179-251    O    0.81826012    0.00020002    0.98086998    -0.19130000
opls_179-252    O    0.81826012    0.50020002    0.26913002    -0.19130000
opls_179-253    O    0.68173988    0.99979998    0.76913002    -0.19130000
opls_179-254    O    0.49979998    0.31826012    0.51913002    -0.19130000
opls_179-255    O    0.00020002    0.18173988    0.01913002    -0.19130000
opls_179-256    O    0.99979998    0.31826012    0.23086998    -0.19130000
opls_179-257    O    0.50020002    0.18173988    0.73086998    -0.19110000
opls_179-258    O    0.18173988    0.99979998    0.98086998    -0.19120000
opls_179-259    O    0.31826012    0.50020002    0.48086998    -0.19130000
opls_146-260    H    0.29367009    0.00008015    0.90322000    0.04620000
opls_185-261    H    0.51860005    0.66871008    0.49221004    0.06670000
opls_185-262    H    0.51947994    0.73260993    0.49954997    0.06500000
opls_185-263    H    0.46114997    0.70126992    0.49611003    0.06670000
opls_146-264    H    0.10567008    0.99990017    0.00655004    0.04800000
opls_146-265    H    0.04604014    0.99994990    0.94163006    0.04780000
opls_144-266    H    0.18821006    0.99988013    0.94826994    0.03200000
opls_146-267    H    0.10808002    0.99978996    0.89286998    0.04620000
opls_146-268    H    0.16732995    0.99985007    0.86660004    0.04810000
opls_146-269    H    0.23330984    0.00002004    0.92984999    0.04780000
opls_146-270    H    0.20632991    0.49991985    0.40322000    0.04620000
opls_185-271    H    0.98139995    0.83128992    0.99221004    0.06670000
opls_185-272    H    0.98052006    0.76739007    0.99954997    0.06490000
opls_185-273    H    0.03885003    0.79873008    0.99611003    0.06670000
opls_146-274    H    0.39432992    0.50009983    0.50655004    0.04800000
opls_146-275    H    0.45395986    0.50005010    0.44163006    0.04780000
opls_144-276    H    0.31178994    0.50011987    0.44826994    0.03200000
opls_146-277    H    0.39191998    0.50021004    0.39286998    0.04620000
opls_146-278    H    0.33267005    0.50014993    0.36660004    0.04800000
opls_146-279    H    0.26669016    0.49997996    0.42984999    0.04780000
opls_146-280    H    0.99991985    0.79367009    0.15322000    0.04620000
opls_185-281    H    0.33128992    0.01860005    0.74221004    0.06670000
opls_185-282    H    0.26739007    0.01947994    0.74954997    0.06490000
opls_185-283    H    0.29873008    0.96114997    0.74611003    0.06670000
opls_146-284    H    0.00009983    0.60567008    0.25655004    0.04800000
opls_146-285    H    0.00005010    0.54604014    0.19163006    0.04780000
opls_144-286    H    0.00011987    0.68821006    0.19826994    0.03200000
opls_146-287    H    0.00021004    0.60808002    0.14286998    0.04620000
opls_146-288    H    0.00014993    0.66732995    0.11660004    0.04800000
opls_146-289    H    0.99997996    0.73330984    0.17984999    0.04780000
opls_146-290    H    0.50008015    0.70632991    0.65322000    0.04620000
opls_185-291    H    0.16871008    0.48139995    0.24221004    0.06670000
opls_185-292    H    0.23260993    0.48052006    0.24954997    0.06490000
opls_185-293    H    0.20126992    0.53885003    0.24611003    0.06680000
opls_146-294    H    0.49990017    0.89432992    0.75655004    0.04800000
opls_146-295    H    0.49994990    0.95395986    0.69163006    0.04780000
opls_144-296    H    0.49988013    0.81178994    0.69826994    0.03200000
opls_146-297    H    0.49978996    0.89191998    0.64286998    0.04620000
opls_146-298    H    0.49985007    0.83267005    0.61660004    0.04800000
opls_146-299    H    0.50002004    0.76669016    0.67984999    0.04780000
opls_146-300    H    0.70632991    0.49991985    0.34678000    0.04620000
opls_185-301    H    0.48139995    0.83128992    0.75778996    0.06670000
opls_185-302    H    0.48052006    0.76739007    0.75045003    0.06490000
opls_185-303    H    0.53885003    0.79873008    0.75388997    0.06670000
opls_146-304    H    0.89432992    0.50009983    0.24344996    0.04800000
opls_146-305    H    0.95395986    0.50005010    0.30836994    0.04780000
opls_144-306    H    0.81178994    0.50011987    0.30173006    0.03200000
opls_146-307    H    0.89191998    0.50021004    0.35713002    0.04620000
opls_146-308    H    0.83267005    0.50014993    0.38339996    0.04800000
opls_146-309    H    0.76669016    0.49997996    0.32015001    0.04780000
opls_146-310    H    0.79367009    0.00008015    0.84678000    0.04620000
opls_185-311    H    0.01860005    0.66871008    0.25778996    0.06670000
opls_185-312    H    0.01947994    0.73260993    0.25045003    0.06490000
opls_185-313    H    0.96114997    0.70126992    0.25388997    0.06670000
opls_146-314    H    0.60567008    0.99990017    0.74344996    0.04800000
opls_146-315    H    0.54604014    0.99994990    0.80836994    0.04780000
opls_144-316    H    0.68821006    0.99988013    0.80173006    0.03200000
opls_146-317    H    0.60808002    0.99978996    0.85713002    0.04620000
opls_146-318    H    0.66732995    0.99985007    0.88339996    0.04800000
opls_146-319    H    0.73330984    0.00002004    0.82015001    0.04780000
opls_146-320    H    0.00008015    0.70632991    0.09678000    0.04620000
opls_185-321    H    0.66871008    0.48139995    0.50778996    0.06680000
opls_185-322    H    0.73260993    0.48052006    0.50045003    0.06490000
opls_185-323    H    0.70126992    0.53885003    0.50388997    0.06670000
opls_146-324    H    0.99990017    0.89432992    0.99344996    0.04800000
opls_146-325    H    0.99994990    0.95395986    0.05836994    0.04780000
opls_144-326    H    0.99988013    0.81178994    0.05173006    0.03200000
opls_146-327    H    0.99978996    0.89191998    0.10713002    0.04620000
opls_146-328    H    0.99985007    0.83267005    0.13339996    0.04800000
opls_146-329    H    0.00002004    0.76669016    0.07015001    0.04780000
opls_146-330    H    0.49991985    0.79367009    0.59678000    0.04620000
opls_185-331    H    0.83128992    0.01860005    0.00778996    0.06670000
opls_185-332    H    0.76739007    0.01947994    0.00045003    0.06490000
opls_185-333    H    0.79873008    0.96114997    0.00388997    0.06670000
opls_146-334    H    0.50009983    0.60567008    0.49344996    0.04800000
opls_146-335    H    0.50005010    0.54604014    0.55836994    0.04780000
opls_144-336    H    0.50011987    0.68821006    0.55173006    0.03200000
opls_146-337    H    0.50021004    0.60808002    0.60713002    0.04620000
opls_146-338    H    0.50014993    0.66732995    0.63339996    0.04810000
opls_146-339    H    0.49997996    0.73330984    0.57015001    0.04780000
opls_146-340    H    0.49991985    0.29367009    0.65322000    0.04620000
opls_185-341    H    0.83128992    0.51860005    0.24221004    0.06670000
opls_185-342    H    0.76739007    0.51947994    0.24954997    0.06490000
opls_185-343    H    0.79873008    0.46114997    0.24611003    0.06670000
opls_146-344    H    0.50009983    0.10567008    0.75655004    0.04800000
opls_146-345    H    0.50005010    0.04604014    0.69163006    0.04780000
opls_144-346    H    0.50011987    0.18821006    0.69826994    0.03200000
opls_146-347    H    0.50021004    0.10808002    0.64286998    0.04620000
opls_146-348    H    0.50014993    0.16732995    0.61660004    0.04800000
opls_146-349    H    0.49997996    0.23330984    0.67984999    0.04780000
opls_146-350    H    0.00008015    0.20632991    0.15322000    0.04620000
opls_185-351    H    0.66871008    0.98139995    0.74221004    0.06670000
opls_185-352    H    0.73260993    0.98052006    0.74954997    0.06490000
opls_185-353    H    0.70126992    0.03885003    0.74611003    0.06670000
opls_146-354    H    0.99990017    0.39432992    0.25655004    0.04800000
opls_146-355    H    0.99994990    0.45395986    0.19163006    0.04780000
opls_144-356    H    0.99988013    0.31178994    0.19826994    0.03200000
opls_146-357    H    0.99978996    0.39191998    0.14286998    0.04620000
opls_146-358    H    0.99985007    0.33267005    0.11660004    0.04800000
opls_146-359    H    0.00002004    0.26669016    0.17984999    0.04780000
opls_146-360    H    0.70632991    0.99991985    0.90322000    0.04620000
opls_185-361    H    0.48139995    0.33128992    0.49221004    0.06670000
opls_185-362    H    0.48052006    0.26739007    0.49954997    0.06490000
opls_185-363    H    0.53885003    0.29873008    0.49611003    0.06680000
opls_146-364    H    0.89432992    0.00009983    0.00655004    0.04800000
opls_146-365    H    0.95395986    0.00005010    0.94163006    0.04780000
opls_144-366    H    0.81178994    0.00011987    0.94826994    0.03200000
opls_146-367    H    0.89191998    0.00021004    0.89286998    0.04620000
opls_146-368    H    0.83267005    0.00014993    0.86660004    0.04800000
opls_146-369    H    0.76669016    0.99997996    0.92984999    0.04780000
opls_146-370    H    0.79367009    0.50008015    0.40322000    0.04620000
opls_185-371    H    0.01860005    0.16871008    0.99221004    0.06670000
opls_185-372    H    0.01947994    0.23260993    0.99954997    0.06490000
opls_185-373    H    0.96114997    0.20126992    0.99611003    0.06670000
opls_146-374    H    0.60567008    0.49990017    0.50655004    0.04800000
opls_146-375    H    0.54604014    0.49994990    0.44163006    0.04780000
opls_144-376    H    0.68821006    0.49988013    0.44826994    0.03200000
opls_146-377    H    0.60808002    0.49978996    0.39286998    0.04620000
opls_146-378    H    0.66732995    0.49985007    0.36660004    0.04810000
opls_146-379    H    0.73330984    0.50002004    0.42984999    0.04780000
opls_146-380    H    0.20632991    0.99991985    0.84678000    0.04620000
opls_185-381    H    0.98139995    0.33128992    0.25778996    0.06670000
opls_185-382    H    0.98052006    0.26739007    0.25045003    0.06490000
opls_185-383    H    0.03885003    0.29873008    0.25388997    0.06670000
opls_146-384    H    0.39432992    0.00009983    0.74344996    0.04800000
opls_146-385    H    0.45395986    0.00005010    0.80836994    0.04780000
opls_144-386    H    0.31178994    0.00011987    0.80173006    0.03200000
opls_146-387    H    0.39191998    0.00021004    0.85713002    0.04620000
opls_146-388    H    0.33267005    0.00014993    0.88339996    0.04800000
opls_146-389    H    0.26669016    0.99997996    0.82015001    0.04780000
opls_146-390    H    0.29367009    0.50008015    0.34678000    0.04620000
opls_185-391    H    0.51860005    0.16871008    0.75778996    0.06670000
opls_185-392    H    0.51947994    0.23260993    0.75045003    0.06500000
opls_185-393    H    0.46114997    0.20126992    0.75388997    0.06670000
opls_146-394    H    0.10567008    0.49990017    0.24344996    0.04800000
opls_146-395    H    0.04604014    0.49994990    0.30836994    0.04780000
opls_144-396    H    0.18821006    0.49988013    0.30173006    0.03200000
opls_146-397    H    0.10808002    0.49978996    0.35713002    0.04620000
opls_146-398    H    0.16732995    0.49985007    0.38339996    0.04800000
opls_146-399    H    0.23330984    0.50002004    0.32015001    0.04780000
opls_146-400    H    0.50008015    0.20632991    0.59678000    0.04620000
opls_185-401    H    0.16871008    0.98139995    0.00778996    0.06670000
opls_185-402    H    0.23260993    0.98052006    0.00045003    0.06490000
opls_185-403    H    0.20126992    0.03885003    0.00388997    0.06680000
opls_146-404    H    0.49990017    0.39432992    0.49344996    0.04800000
opls_146-405    H    0.49994990    0.45395986    0.55836994    0.04780000
opls_144-406    H    0.49988013    0.31178994    0.55173006    0.03200000
opls_146-407    H    0.49978996    0.39191998    0.60713002    0.04620000
opls_146-408    H    0.49985007    0.33267005    0.63339996    0.04800000
opls_146-409    H    0.50002004    0.26669016    0.57015001    0.04780000
opls_146-410    H    0.99991985    0.29367009    0.09678000    0.04620000
opls_185-411    H    0.33128992    0.51860005    0.50778996    0.06670000
opls_185-412    H    0.26739007    0.51947994    0.50045003    0.06490000
opls_185-413    H    0.29873008    0.46114997    0.50388997    0.06670000
opls_146-414    H    0.00009983    0.10567008    0.99344996    0.04800000
opls_146-415    H    0.00005010    0.04604014    0.05836994    0.04780000
opls_144-416    H    0.00011987    0.18821006    0.05173006    0.03200000
opls_146-417    H    0.00021004    0.10808002    0.10713002    0.04620000
opls_146-418    H    0.00014993    0.16732995    0.13339996    0.04800000
opls_146-419    H    0.99997996    0.23330984    0.07015001    0.04780000
