#======================================================================
# Crystal Data Generated By AuToFF
#----------------------------------------------------------------------

data_AuToFF_phase_1

_cell_length_a                         37.1407
_cell_length_b                         37.1469
_cell_length_c                         3.5402
_cell_angle_alpha                      90.19
_cell_angle_beta                       89.46
_cell_angle_gamma                      120.56
_symmetry_space_group_name_H-M_alt     'P 1'
_symmetry_space_group_IT_number        1

loop_
_space_group_symop_operation_xyz
   'x, y, z'

loop_
   _atom_site_label
   _atom_site_type_symbol
   _atom_site_fract_x
   _atom_site_fract_y
   _atom_site_fract_z
   _atom_site_charge
opls_523-0    C    0.17213990    0.22162995    0.50378104    -0.10020000
opls_700-1    C    0.15060007    0.24361991    0.48672186    -0.00440000
opls_145-2    C    0.95170005    0.83895009    0.48725011    0.21740000
opls_145-3    C    0.90783010    0.81629021    0.46306952    -0.11460000
opls_145-4    C    0.97320005    0.81694013    0.50880925    -0.11520000
opls_523-5    C    0.88618028    0.77276016    0.46671073    -0.08900000
opls_523-6    C    0.95124016    0.77342001    0.51285159    -0.10020000
opls_700-7    C    0.90740013    0.75068018    0.49280091    -0.00540000
opls_523-8    C    0.88384015    0.57537993    0.48561170    -0.08800000
opls_523-9    C    0.94904009    0.63980999    0.54631175    -0.08800000
opls_700-10    C    0.02650022    0.53975008    0.47148188    0.00320000
opls_166-11    C    0.00683009    0.49739018    0.52987969    0.17730000
opls_145-12    C    0.06929014    0.55949995    0.41403039    -0.08810000
opls_166-13    C    0.02909010    0.47541008    0.52785993    0.17730000
opls_145-14    C    0.09088009    0.53823006    0.41231007    -0.08810000
opls_700-15    C    0.07145017    0.49543001    0.46760056    0.00320000
opls_142-16    C    0.09625997    0.47503998    0.45458089    0.01340000
opls_145-17    C    0.14987000    0.43924008    0.53165934    -0.11350000
opls_145-18    C    0.08513013    0.37391996    0.46806948    -0.11460000
opls_145-19    C    0.90482005    0.55321993    0.48735180    -0.11460000
opls_145-20    C    0.97036014    0.61793011    0.54796146    -0.11460000
opls_145-21    C    0.94848008    0.57428990    0.51565947    0.22780000
opls_142-22    C    0.43754016    0.43011009    0.44565159    0.01470000
opls_142-23    C    0.00581995    0.56428999    0.46258930    0.01510000
opls_700-24    C    0.57307999    0.49821003    0.45458937    0.00830000
opls_700-25    C    0.48316006    0.45450996    0.45341989    0.00800000
opls_145-26    C    0.50567994    0.43419990    0.40264913    -0.08820000
opls_166-27    C    0.50664003    0.49719000    0.50604938    0.17480000
opls_145-28    C    0.54889006    0.45519017    0.40345986    -0.08820000
opls_166-29    C    0.55123006    0.51889002    0.50637989    0.17380000
opls_142-30    C    0.61864021    0.51829012    0.44693972    0.01340000
opls_523-31    C    0.75352019    0.64093008    0.46578984    -0.08800000
opls_523-32    C    0.75195018    0.57607018    0.53293051    -0.08800000
opls_145-33    C    0.71000003    0.61962003    0.46634068    -0.11460000
opls_145-34    C    0.70837997    0.55442002    0.53334011    -0.11350000
opls_145-35    C    0.68683993    0.57595996    0.49723025    0.23680000
opls_700-36    C    0.90561000    0.61899992    0.51439112    0.00810000
opls_166-37    C    0.04946006    0.01983010    0.47128132    0.17800000
opls_166-38    C    0.02783016    0.97525012    0.47256097    0.17720000
opls_700-39    C    0.98539012    0.95167014    0.53083166    0.00290000
opls_145-40    C    0.96522009    0.97410016    0.58587074    -0.08810000
opls_145-41    C    0.98618018    0.01730018    0.58474081    -0.08810000
opls_700-42    C    0.02899992    0.04159005    0.52839100    0.00320000
opls_142-43    C    0.04922008    0.08712012    0.53759149    0.09150000
opls_531-44    C    0.17365990    0.28973991    0.49130092    0.40340000
opls_531-45    C    0.17378018    0.35170015    0.49310034    0.40340000
opls_531-46    C    0.23593005    0.35225990    0.50148163    0.40440000
opls_531-47    C    0.88401008    0.70455008    0.49784041    0.40300000
opls_531-48    C    0.88313013    0.64226995    0.51011150    0.40490000
opls_531-49    C    0.82131012    0.64235004    0.49915114    0.40340000
opls_700-50    C    0.28208000    0.37571019    0.50387991    0.01320000
opls_142-51    C    0.96120004    0.90606004    0.54137112    0.09420000
opls_145-52    C    0.10661013    0.15535998    0.48174168    0.21610000
opls_145-53    C    0.08493008    0.17726007    0.46084073    -0.11460000
opls_145-54    C    0.34803000    0.37699008    0.53578077    -0.11360000
opls_145-55    C    0.34804001    0.44152012    0.47189148    -0.11460000
opls_145-56    C    0.37036001    0.42054007    0.50046186    0.24000000
opls_700-57    C    0.15069016    0.37436009    0.49413141    0.01520000
opls_523-58    C    0.17159006    0.41776016    0.52818196    -0.08790000
opls_523-59    C    0.10714011    0.35277992    0.46432940    -0.08800000
opls_145-60    C    0.15058995    0.17813990    0.49987147    -0.11520000
opls_145-61    C    0.10626012    0.41753004    0.49945057    0.23810000
opls_700-62    C    0.77515995    0.61947995    0.49841103    0.00620000
opls_523-63    C    0.10682991    0.22079996    0.46404974    -0.08900000
opls_523-64    C    0.30447018    0.35503009    0.53626947    -0.08800000
opls_523-65    C    0.30450991    0.41926999    0.47256944    -0.08800000
opls_167-66    O    0.48913018    0.52030007    0.55909131    -0.38580000
opls_167-67    O    0.96631008    0.47501006    0.59113058    -0.34640000
opls_167-68    O    0.09015003    0.03897007    0.41219142    -0.39780000
opls_167-69    O    0.57027010    0.55983991    0.55948113    -0.38380000
opls_167-70    O    0.00696017    0.43485002    0.58748090    -0.39610000
opls_167-71    O    0.05075017    0.95785017    0.41466033    -0.39950000
opls_750-72    N    0.96781000    0.55021007    0.52045039    -0.15250000
opls_750-73    N    0.41414017    0.44460009    0.50230930    -0.15250000
opls_520-74    N    0.21588016    0.37400016    0.49919068    -0.38110000
opls_520-75    N    0.15174010    0.30957991    0.48665124    -0.37970000
opls_520-76    N    0.21575013    0.31014018    0.50013983    -0.38020000
opls_520-77    N    0.84190994    0.68445991    0.49212012    -0.37850000
opls_520-78    N    0.90557996    0.68441005    0.50813129    -0.37780000
opls_520-79    N    0.84097999    0.62030009    0.50693921    -0.38020000
opls_750-80    N    0.08220003    0.43684997    0.50786010    -0.15260000
opls_750-81    N    0.64313006    0.55648007    0.50048163    -0.15260000
opls_750-82    N    0.97549010    0.88273009    0.48126993    -0.15710000
opls_750-83    N    0.08690009    0.11166993    0.47595924    -0.15720000
opls_526-84    H    0.20941999    0.23634992    0.50167089    0.04140000
opls_146-85    H    0.88369999    0.82875994    0.46390002    0.04080000
opls_146-86    H    0.01053020    0.84031002    0.50691096    0.04110000
opls_526-87    H    0.84875017    0.75660994    0.46880111    0.04140000
opls_526-88    H    0.97429011    0.75955019    0.51128945    0.04140000
opls_526-89    H    0.84637002    0.55888000    0.48715971    0.04140000
opls_526-90    H    0.96621016    0.67734017    0.54728067    0.04140000
opls_146-91    H    0.08587005    0.59707004    0.41093155    0.04110000
opls_146-92    H    0.12794011    0.56281990    0.40693158    0.04140000
opls_144-93    H    0.13255010    0.50144990    0.44769960    0.02100000
opls_146-94    H    0.16856002    0.47653004    0.53326102    0.04190000
opls_146-95    H    0.04798002    0.34981016    0.46964009    0.04140000
opls_146-96    H    0.88063010    0.51609001    0.48736028    0.04140000
opls_146-97    H    0.00732012    0.64243018    0.54735129    0.04130000
opls_144-98    H    0.42691008    0.39382017    0.44123920    0.02100000
opls_144-99    H    0.02819004    0.60143005    0.45730968    0.02100000
opls_146-100    H    0.49197001    0.39704015    0.40031017    0.04140000
opls_146-101    H    0.56933020    0.43832017    0.39855029    0.04110000
opls_144-102    H    0.63302002    0.49589005    0.44089174    0.02100000
opls_526-103    H    0.77484011    0.67842998    0.46349042    0.04140000
opls_526-104    H    0.77226010    0.55915995    0.53208024    0.04140000
opls_146-105    H    0.69722014    0.64359997    0.46691130    0.04140000
opls_146-106    H    0.69544010    0.51750008    0.53541919    0.04130000
opls_146-107    H    0.92767003    0.95223010    0.59146956    0.04110000
opls_146-108    H    0.96136993    0.02907998    0.59004020    0.04140000
opls_144-109    H    0.02273006    0.09646010    0.54492194    0.02100000
opls_144-110    H    0.92410004    0.89077999    0.54893038    0.02200000
opls_146-111    H    0.04763015    0.15808007    0.46214015    0.04190000
opls_146-112    H    0.36597022    0.35799013    0.53567060    0.04190000
opls_146-113    H    0.36153994    0.47862998    0.47058076    0.04140000
opls_526-114    H    0.20886010    0.44106993    0.52678085    0.04140000
opls_526-115    H    0.09053996    0.31530011    0.46317969    0.04140000
opls_146-116    H    0.16493989    0.15543000    0.49850990    0.04110000
opls_526-117    H    0.08390007    0.23480009    0.46591131    0.04140000
opls_526-118    H    0.29004014    0.31779014    0.53781183    0.04140000
opls_526-119    H    0.28366001    0.43559995    0.47360051    0.04140000
opls_168-120    H    0.45736002    0.50988994    0.55956023    0.31920000
opls_168-121    H    0.94363998    0.48370012    0.59075206    0.33090000
opls_168-122    H    0.11242994    0.07085006    0.41391175    0.32270000
opls_168-123    H    0.60220004    0.58187994    0.55433993    0.33090000
opls_168-124    H    0.01922011    0.41542999    0.58546961    0.32640000
opls_168-125    H    0.04215010    0.92629006    0.41718008    0.33630000
