#======================================================================
# Crystal Data Generated By AuToFF
#----------------------------------------------------------------------

data_AuToFF_phase_1

_cell_length_a                         40.3681
_cell_length_b                         31.4986
_cell_length_c                         4.6144
_cell_angle_alpha                      90.00
_cell_angle_beta                       90.00
_cell_angle_gamma                      90.00
_symmetry_space_group_name_H-M_alt     'P 1'
_symmetry_space_group_IT_number        1

loop_
_space_group_symop_operation_xyz
   'x, y, z'

loop_
   _atom_site_label
   _atom_site_type_symbol
   _atom_site_fract_x
   _atom_site_fract_y
   _atom_site_fract_z
   _atom_site_charge
opls_145-0    C    0.36046012    0.37266005    0.68167042    -0.16580000
opls_145-1    C    0.38931012    0.39747005    0.68862041    -0.12600000
opls_700-2    C    0.41382998    0.39155994    0.90328103    0.07030000
opls_145-3    C    0.35549010    0.33941985    0.87854976    0.23370000
opls_145-4    C    0.61895011    0.66929991    0.07902002    -0.18430000
opls_145-5    C    0.59054006    0.64324002    0.09344010    -0.08820000
opls_142-6    C    0.18492002    0.78543999    0.04029993    0.07740000
opls_700-7    C    0.21736990    0.76809001    0.01616895    -0.10280000
opls_727-8    C    0.24153007    0.78483996    0.82610957    0.12930000
opls_727-9    C    0.22651004    0.73295004    0.18925971    0.12890000
opls_543-10    C    0.47326998    0.41068016    0.97246012    0.20900000
opls_700-11    C    0.43974995    0.42280006    0.94391904    -0.06480000
opls_543-12    C    0.43067992    0.46588007    0.97091930    0.20920000
opls_716-13    C    0.48348993    0.36873004    0.97470960    -0.19490000
opls_716-14    C    0.39793005    0.47876985    0.98937023    -0.19490000
opls_145-15    C    0.63953988    0.62733995    0.68167042    -0.16580000
opls_145-16    C    0.61068988    0.60252995    0.68862041    -0.12590000
opls_700-17    C    0.58617002    0.60844006    0.90328103    0.07030000
opls_145-18    C    0.64450990    0.66058015    0.87854976    0.23370000
opls_145-19    C    0.38104989    0.33070009    0.07902002    -0.18430000
opls_145-20    C    0.40945994    0.35675998    0.09344010    -0.08820000
opls_142-21    C    0.81507998    0.21456001    0.04029993    0.07740000
opls_700-22    C    0.78263010    0.23190999    0.01616895    -0.10280000
opls_727-23    C    0.75846993    0.21516004    0.82610957    0.12930000
opls_727-24    C    0.77348996    0.26704996    0.18925971    0.12890000
opls_543-25    C    0.52673002    0.58931984    0.97246012    0.20900000
opls_700-26    C    0.56025005    0.57719994    0.94391904    -0.06480000
opls_543-27    C    0.56932008    0.53411993    0.97091930    0.20930000
opls_716-28    C    0.51651007    0.63126996    0.97470960    -0.19490000
opls_716-29    C    0.60206995    0.52123015    0.98937023    -0.19490000
opls_145-30    C    0.63953988    0.37266005    0.31832958    -0.16580000
opls_145-31    C    0.61068988    0.39747005    0.31137959    -0.12600000
opls_700-32    C    0.58617002    0.39155994    0.09671897    0.07030000
opls_145-33    C    0.64450990    0.33941985    0.12145024    0.23380000
opls_145-34    C    0.38104989    0.66929991    0.92097998    -0.18440000
opls_145-35    C    0.40945994    0.64324002    0.90655990    -0.08820000
opls_142-36    C    0.81507998    0.78543999    0.95970007    0.07740000
opls_700-37    C    0.78263010    0.76809001    0.98383105    -0.10280000
opls_727-38    C    0.75846993    0.78483996    0.17389043    0.12930000
opls_727-39    C    0.77348996    0.73295004    0.81074029    0.12890000
opls_543-40    C    0.52673002    0.41068016    0.02753988    0.20900000
opls_700-41    C    0.56025005    0.42280006    0.05608096    -0.06480000
opls_543-42    C    0.56932008    0.46588007    0.02908070    0.20920000
opls_716-43    C    0.51651007    0.36873004    0.02529040    -0.19490000
opls_716-44    C    0.60206995    0.47876985    0.01062977    -0.19490000
opls_145-45    C    0.36046012    0.62733995    0.31832958    -0.16580000
opls_145-46    C    0.38931012    0.60252995    0.31137959    -0.12600000
opls_700-47    C    0.41382998    0.60844006    0.09671897    0.07030000
opls_145-48    C    0.35549010    0.66058015    0.12145024    0.23370000
opls_145-49    C    0.61895011    0.33070009    0.92097998    -0.18440000
opls_145-50    C    0.59054006    0.35675998    0.90655990    -0.08820000
opls_142-51    C    0.18492002    0.21456001    0.95970007    0.07740000
opls_700-52    C    0.21736990    0.23190999    0.98383105    -0.10280000
opls_727-53    C    0.24153007    0.21516004    0.17389043    0.12930000
opls_727-54    C    0.22651004    0.26704996    0.81074029    0.12890000
opls_543-55    C    0.47326998    0.58931984    0.02753988    0.20900000
opls_700-56    C    0.43974995    0.57719994    0.05608096    -0.06480000
opls_543-57    C    0.43067992    0.53411993    0.02908070    0.20920000
opls_716-58    C    0.48348993    0.63126996    0.02529040    -0.19490000
opls_716-59    C    0.39793005    0.52123015    0.01062977    -0.19490000
opls_145-60    C    0.13953988    0.12733995    0.31832958    -0.16580000
opls_145-61    C    0.11068988    0.10252995    0.31137959    -0.12600000
opls_700-62    C    0.08617002    0.10844006    0.09671897    0.07030000
opls_145-63    C    0.14450990    0.16058015    0.12145024    0.23370000
opls_145-64    C    0.88104989    0.83070009    0.92097998    -0.18440000
opls_145-65    C    0.90945994    0.85675998    0.90655990    -0.08820000
opls_142-66    C    0.31507998    0.71456001    0.95970007    0.07740000
opls_700-67    C    0.28263010    0.73190999    0.98383105    -0.10280000
opls_727-68    C    0.25846993    0.71516004    0.17389043    0.12930000
opls_727-69    C    0.27348996    0.76704996    0.81074029    0.12890000
opls_543-70    C    0.02673002    0.08931984    0.02753988    0.20900000
opls_700-71    C    0.06025005    0.07719994    0.05608096    -0.06480000
opls_543-72    C    0.06932008    0.03411993    0.02908070    0.20920000
opls_716-73    C    0.01651007    0.13126996    0.02529040    -0.19490000
opls_716-74    C    0.10206995    0.02123015    0.01062977    -0.19490000
opls_145-75    C    0.86046012    0.87266005    0.31832958    -0.16580000
opls_145-76    C    0.88931012    0.89747005    0.31137959    -0.12600000
opls_700-77    C    0.91382998    0.89155994    0.09671897    0.07030000
opls_145-78    C    0.85549010    0.83941985    0.12145024    0.23370000
opls_145-79    C    0.11895011    0.16929991    0.92097998    -0.18440000
opls_145-80    C    0.09054006    0.14324002    0.90655990    -0.08820000
opls_142-81    C    0.68492002    0.28543999    0.95970007    0.07740000
opls_700-82    C    0.71736990    0.26809001    0.98383105    -0.10280000
opls_727-83    C    0.74153007    0.28483996    0.17389043    0.12930000
opls_727-84    C    0.72651004    0.23295004    0.81074029    0.12890000
opls_543-85    C    0.97326998    0.91068016    0.02753988    0.20900000
opls_700-86    C    0.93974995    0.92280006    0.05608096    -0.06480000
opls_543-87    C    0.93067992    0.96588007    0.02908070    0.20920000
opls_716-88    C    0.98348993    0.86873004    0.02529040    -0.19480000
opls_716-89    C    0.89793005    0.97876985    0.01062977    -0.19490000
opls_145-90    C    0.86046012    0.12733995    0.68167042    -0.16580000
opls_145-91    C    0.88931012    0.10252995    0.68862041    -0.12600000
opls_700-92    C    0.91382998    0.10844006    0.90328103    0.07030000
opls_145-93    C    0.85549010    0.16058015    0.87854976    0.23370000
opls_145-94    C    0.11895011    0.83070009    0.07902002    -0.18430000
opls_145-95    C    0.09054006    0.85675998    0.09344010    -0.08820000
opls_142-96    C    0.68492002    0.71456001    0.04029993    0.07740000
opls_700-97    C    0.71736990    0.73190999    0.01616895    -0.10270000
opls_727-98    C    0.74153007    0.71516004    0.82610957    0.12930000
opls_727-99    C    0.72651004    0.76704996    0.18925971    0.12890000
opls_543-100    C    0.97326998    0.08931984    0.97246012    0.20910000
opls_700-101    C    0.93974995    0.07719994    0.94391904    -0.06480000
opls_543-102    C    0.93067992    0.03411993    0.97091930    0.20920000
opls_716-103    C    0.98348993    0.13126996    0.97470960    -0.19490000
opls_716-104    C    0.89793005    0.02123015    0.98937023    -0.19490000
opls_145-105    C    0.13953988    0.87266005    0.68167042    -0.16570000
opls_145-106    C    0.11068988    0.89747005    0.68862041    -0.12600000
opls_700-107    C    0.08617002    0.89155994    0.90328103    0.07030000
opls_145-108    C    0.14450990    0.83941985    0.87854976    0.23370000
opls_145-109    C    0.88104989    0.16929991    0.07902002    -0.18440000
opls_145-110    C    0.90945994    0.14324002    0.09344010    -0.08820000
opls_142-111    C    0.31507998    0.28543999    0.04029993    0.07740000
opls_700-112    C    0.28263010    0.26809001    0.01616895    -0.10280000
opls_727-113    C    0.25846993    0.28483996    0.82610957    0.12930000
opls_727-114    C    0.27348996    0.23295004    0.18925971    0.12890000
opls_543-115    C    0.02673002    0.91068016    0.97246012    0.20900000
opls_700-116    C    0.06025005    0.92280006    0.94391904    -0.06480000
opls_543-117    C    0.06932008    0.96588007    0.97091930    0.20920000
opls_716-118    C    0.01651007    0.86873004    0.97470960    -0.19490000
opls_716-119    C    0.10206995    0.97876985    0.98937023    -0.19480000
opls_146-120    H    0.34159002    0.37982990    0.52203103    0.11740000
opls_146-121    H    0.39179005    0.42290991    0.53211035    0.11660000
opls_146-122    H    0.62121997    0.69454007    0.23601985    0.12550000
opls_146-123    H    0.57318997    0.64871010    0.26842926    0.11830000
opls_144-124    H    0.16830988    0.77184986    0.19879941    0.12340000
opls_547-125    H    0.46902009    0.34027004    0.94433079    0.12280000
opls_547-126    H    0.37557007    0.45998013    0.99332091    0.12560000
opls_146-127    H    0.65840998    0.62017010    0.52203103    0.11740000
opls_146-128    H    0.60820995    0.57709009    0.53211035    0.11650000
opls_146-129    H    0.37878003    0.30545993    0.23601985    0.12550000
opls_146-130    H    0.42681003    0.35128990    0.26842926    0.11830000
opls_144-131    H    0.83169012    0.22815014    0.19879941    0.12340000
opls_547-132    H    0.53097991    0.65972996    0.94433079    0.12280000
opls_547-133    H    0.62442993    0.54001987    0.99332091    0.12550000
opls_146-134    H    0.65840998    0.37982990    0.47796897    0.11740000
opls_146-135    H    0.60820995    0.42290991    0.46788965    0.11650000
opls_146-136    H    0.37878003    0.69454007    0.76398015    0.12550000
opls_146-137    H    0.42681003    0.64871010    0.73157074    0.11830000
opls_144-138    H    0.83169012    0.77184986    0.80120059    0.12340000
opls_547-139    H    0.53097991    0.34027004    0.05566921    0.12270000
opls_547-140    H    0.62442993    0.45998013    0.00667909    0.12550000
opls_146-141    H    0.34159002    0.62017010    0.47796897    0.11750000
opls_146-142    H    0.39179005    0.57709009    0.46788965    0.11650000
opls_146-143    H    0.62121997    0.30545993    0.76398015    0.12550000
opls_146-144    H    0.57318997    0.35128990    0.73157074    0.11830000
opls_144-145    H    0.16830988    0.22815014    0.80120059    0.12340000
opls_547-146    H    0.46902009    0.65972996    0.05566921    0.12270000
opls_547-147    H    0.37557007    0.54001987    0.00667909    0.12550000
opls_146-148    H    0.15840998    0.12017010    0.47796897    0.11740000
opls_146-149    H    0.10820995    0.07709009    0.46788965    0.11650000
opls_146-150    H    0.87878003    0.80545993    0.76398015    0.12550000
opls_146-151    H    0.92681003    0.85128990    0.73157074    0.11830000
opls_144-152    H    0.33169012    0.72815014    0.80120059    0.12350000
opls_547-153    H    0.03097991    0.15972996    0.05566921    0.12280000
opls_547-154    H    0.12442993    0.04001987    0.00667909    0.12550000
opls_146-155    H    0.84159002    0.87982990    0.47796897    0.11740000
opls_146-156    H    0.89179005    0.92290991    0.46788965    0.11650000
opls_146-157    H    0.12121997    0.19454007    0.76398015    0.12550000
opls_146-158    H    0.07318997    0.14871010    0.73157074    0.11830000
opls_144-159    H    0.66830988    0.27184986    0.80120059    0.12340000
opls_547-160    H    0.96902009    0.84027004    0.05566921    0.12270000
opls_547-161    H    0.87557007    0.95998013    0.00667909    0.12550000
opls_146-162    H    0.84159002    0.12017010    0.52203103    0.11740000
opls_146-163    H    0.89179005    0.07709009    0.53211035    0.11650000
opls_146-164    H    0.12121997    0.80545993    0.23601985    0.12550000
opls_146-165    H    0.07318997    0.85128990    0.26842926    0.11830000
opls_144-166    H    0.66830988    0.72815014    0.19879941    0.12340000
opls_547-167    H    0.96902009    0.15972996    0.94433079    0.12270000
opls_547-168    H    0.87557007    0.04001987    0.99332091    0.12550000
opls_146-169    H    0.15840998    0.87982990    0.52203103    0.11740000
opls_146-170    H    0.10820995    0.92290991    0.53211035    0.11650000
opls_146-171    H    0.87878003    0.19454007    0.23601985    0.12550000
opls_146-172    H    0.92681003    0.14871010    0.26842926    0.11840000
opls_144-173    H    0.33169012    0.27184986    0.19879941    0.12340000
opls_547-174    H    0.03097991    0.84027004    0.94433079    0.12270000
opls_547-175    H    0.12442993    0.95998013    0.99332091    0.12550000
opls_719-176    F    0.26541997    0.68138012    0.34625954    -0.11680000
opls_719-177    F    0.20435988    0.71546005    0.37613991    -0.12940000
opls_719-178    F    0.73458003    0.31861988    0.34625954    -0.11680000
opls_719-179    F    0.79564012    0.28453995    0.37613991    -0.12940000
opls_719-180    F    0.73458003    0.68138012    0.65374046    -0.11680000
opls_719-181    F    0.79564012    0.71546005    0.62386009    -0.12940000
opls_719-182    F    0.26541997    0.31861988    0.65374046    -0.11680000
opls_719-183    F    0.20435988    0.28453995    0.62386009    -0.12940000
opls_719-184    F    0.23458003    0.81861988    0.65374046    -0.11680000
opls_719-185    F    0.29564012    0.78453995    0.62386009    -0.12940000
opls_719-186    F    0.76541997    0.18138012    0.65374046    -0.11680000
opls_719-187    F    0.70435988    0.21546005    0.62386009    -0.12940000
opls_719-188    F    0.76541997    0.81861988    0.34625954    -0.11680000
opls_719-189    F    0.70435988    0.78453995    0.37613991    -0.12930000
opls_719-190    F    0.23458003    0.18138012    0.34625954    -0.11670000
opls_719-191    F    0.29564012    0.21546005    0.37613991    -0.12940000
opls_750-192    N    0.17427003    0.81833986    0.87169946    -0.33260000
opls_750-193    N    0.82572997    0.18166014    0.87169946    -0.33260000
opls_750-194    N    0.82572997    0.81833986    0.12830054    -0.33270000
opls_750-195    N    0.17427003    0.18166014    0.12830054    -0.33270000
opls_750-196    N    0.32572997    0.68166014    0.12830054    -0.33260000
opls_750-197    N    0.67427003    0.31833986    0.12830054    -0.33270000
opls_750-198    N    0.67427003    0.68166014    0.87169946    -0.33270000
opls_750-199    N    0.32572997    0.31833986    0.87169946    -0.33270000
opls_542-200    N    0.45140990    0.50000000    0.00000000    -0.38110000
opls_542-201    N    0.54859010    0.50000000    0.00000000    -0.38120000
opls_542-202    N    0.04859010    0.00000000    0.00000000    -0.38110000
opls_542-203    N    0.95140990    0.00000000    0.00000000    -0.38120000
opls_542-204    N    0.50000000    0.56273009    0.00000000    -0.38100000
opls_542-205    N    0.50000000    0.43726991    0.00000000    -0.38090000
opls_542-206    N    0.00000000    0.93726991    0.00000000    -0.38090000
opls_542-207    N    0.00000000    0.06273009    0.00000000    -0.38100000
F2_Co4+2-208    Co    0.50000000    0.50000000    0.00000000    0.69750000
F2_Co4+2-209    Co    0.00000000    0.00000000    0.00000000    0.69730000
