#======================================================================
# Crystal Data Generated By AuToFF
#----------------------------------------------------------------------

data_AuToFF_phase_1

_cell_length_a                         28.1270
_cell_length_b                         28.1270
_cell_length_c                         8.8790
_cell_angle_alpha                      90.00
_cell_angle_beta                       90.00
_cell_angle_gamma                      90.00
_symmetry_space_group_name_H-M_alt     'P 1'
_symmetry_space_group_IT_number        1

loop_
_space_group_symop_operation_xyz
   'x, y, z'

loop_
   _atom_site_label
   _atom_site_type_symbol
   _atom_site_fract_x
   _atom_site_fract_y
   _atom_site_fract_z
   _atom_site_charge
opls_145-0    C    0.46180005    0.46990010    0.02490033    -0.21010000
opls_145-1    C    0.49370000    0.45869983    0.92279986    0.01030000
opls_142-2    C    0.48639990    0.41800014    0.84690055    0.09330000
opls_145-3    C    0.53199986    0.48929996    0.89870030    -0.20360000
opls_145-4    C    0.51189995    0.36669997    0.65920036    0.20340000
opls_145-5    C    0.55130017    0.35290006    0.58519991    -0.20970000
opls_145-6    C    0.54819995    0.31580012    0.49390021    -0.20410000
opls_145-7    C    0.50470011    0.29269990    0.47039982    0.05540000
opls_145-8    C    0.46569986    0.30569986    0.54979953    -0.20360000
opls_145-9    C    0.46889999    0.34259999    0.64119946    -0.21000000
opls_145-10    C    0.96180005    0.96990010    0.52490033    -0.21010000
opls_145-11    C    0.99370000    0.95869983    0.42279986    0.01030000
opls_142-12    C    0.98639990    0.91800014    0.34690055    0.09330000
opls_145-13    C    0.03199986    0.98929996    0.39870030    -0.20360000
opls_145-14    C    0.01189995    0.86669997    0.15920036    0.20340000
opls_145-15    C    0.05130017    0.85290006    0.08519991    -0.20990000
opls_145-16    C    0.04819995    0.81580012    0.99390021    -0.20410000
opls_145-17    C    0.00470011    0.79269990    0.97039982    0.05550000
opls_145-18    C    0.96569986    0.80569986    0.04979953    -0.20360000
opls_145-19    C    0.96889999    0.84259999    0.14119946    -0.21000000
opls_145-20    C    0.03819995    0.53009990    0.52490033    -0.21000000
opls_145-21    C    0.00630000    0.54130017    0.42279986    0.01030000
opls_142-22    C    0.01360010    0.58199986    0.34690055    0.09330000
opls_145-23    C    0.96800014    0.51070004    0.39870030    -0.20360000
opls_145-24    C    0.98810005    0.63330003    0.15920036    0.20340000
opls_145-25    C    0.94869983    0.64709994    0.08519991    -0.20980000
opls_145-26    C    0.95180005    0.68419988    0.99390021    -0.20410000
opls_145-27    C    0.99529989    0.70730010    0.97039982    0.05540000
opls_145-28    C    0.03430014    0.69430014    0.04979953    -0.20360000
opls_145-29    C    0.03110001    0.65740001    0.14119946    -0.21000000
opls_145-30    C    0.53819995    0.03009990    0.02490033    -0.21010000
opls_145-31    C    0.50630000    0.04130017    0.92279986    0.01030000
opls_142-32    C    0.51360010    0.08199986    0.84690055    0.09330000
opls_145-33    C    0.46800014    0.01070004    0.89870030    -0.20360000
opls_145-34    C    0.48810005    0.13330003    0.65920036    0.20350000
opls_145-35    C    0.44869983    0.14709994    0.58519991    -0.20990000
opls_145-36    C    0.45180005    0.18419988    0.49390021    -0.20410000
opls_145-37    C    0.49529989    0.20730010    0.47039982    0.05540000
opls_145-38    C    0.53430014    0.19430014    0.54979953    -0.20360000
opls_145-39    C    0.53110001    0.15740001    0.64119946    -0.21000000
opls_145-40    C    0.28009990    0.71180005    0.27490033    -0.21000000
opls_145-41    C    0.29130017    0.74370000    0.17279986    0.01030000
opls_142-42    C    0.33199986    0.73639990    0.09690055    0.09330000
opls_145-43    C    0.26070004    0.78199986    0.14870030    -0.20360000
opls_145-44    C    0.38330003    0.76189995    0.90920036    0.20340000
opls_145-45    C    0.39709994    0.80130017    0.83519991    -0.20990000
opls_145-46    C    0.43419988    0.79819995    0.74390021    -0.20410000
opls_145-47    C    0.45730010    0.75470011    0.72039982    0.05540000
opls_145-48    C    0.44430014    0.71569986    0.79979953    -0.20360000
opls_145-49    C    0.40740001    0.71889999    0.89119946    -0.21000000
opls_145-50    C    0.78009990    0.21180005    0.77490033    -0.21010000
opls_145-51    C    0.79130017    0.24370000    0.67279986    0.01030000
opls_142-52    C    0.83199986    0.23639990    0.59690055    0.09330000
opls_145-53    C    0.76070004    0.28199986    0.64870030    -0.20360000
opls_145-54    C    0.88330003    0.26189995    0.40920036    0.20340000
opls_145-55    C    0.89709994    0.30130017    0.33519991    -0.20990000
opls_145-56    C    0.93419988    0.29819995    0.24390021    -0.20410000
opls_145-57    C    0.95730010    0.25470011    0.22039982    0.05540000
opls_145-58    C    0.94430014    0.21569986    0.29979953    -0.20360000
opls_145-59    C    0.90740001    0.21889999    0.39119946    -0.21000000
opls_145-60    C    0.21990010    0.28819995    0.77490033    -0.21010000
opls_145-61    C    0.20869983    0.25630000    0.67279986    0.01030000
opls_142-62    C    0.16800014    0.26360010    0.59690055    0.09330000
opls_145-63    C    0.23929996    0.21800014    0.64870030    -0.20360000
opls_145-64    C    0.11669997    0.23810005    0.40920036    0.20340000
opls_145-65    C    0.10290006    0.19869983    0.33519991    -0.20990000
opls_145-66    C    0.06580012    0.20180005    0.24390021    -0.20410000
opls_145-67    C    0.04269990    0.24529989    0.22039982    0.05540000
opls_145-68    C    0.05569986    0.28430014    0.29979953    -0.20360000
opls_145-69    C    0.09259999    0.28110001    0.39119946    -0.21000000
opls_145-70    C    0.71990010    0.78819995    0.27490033    -0.21010000
opls_145-71    C    0.70869983    0.75630000    0.17279986    0.01030000
opls_142-72    C    0.66800014    0.76360010    0.09690055    0.09330000
opls_145-73    C    0.73929996    0.71800014    0.14870030    -0.20360000
opls_145-74    C    0.61669997    0.73810005    0.90920036    0.20340000
opls_145-75    C    0.60290006    0.69869983    0.83519991    -0.20980000
opls_145-76    C    0.56580012    0.70180005    0.74390021    -0.20410000
opls_145-77    C    0.54269990    0.74529989    0.72039982    0.05540000
opls_145-78    C    0.55569986    0.78430014    0.79979953    -0.20360000
opls_145-79    C    0.59259999    0.78110001    0.89119946    -0.21000000
opls_145-80    C    0.53819995    0.53009990    0.97509967    -0.21010000
opls_145-81    C    0.50630000    0.54130017    0.07720014    0.01030000
opls_142-82    C    0.51360010    0.58199986    0.15309945    0.09330000
opls_145-83    C    0.46800014    0.51070004    0.10129970    -0.20360000
opls_145-84    C    0.48810005    0.63330003    0.34079964    0.20340000
opls_145-85    C    0.44869983    0.64709994    0.41480009    -0.20990000
opls_145-86    C    0.45180005    0.68419988    0.50609979    -0.20410000
opls_145-87    C    0.49529989    0.70730010    0.52960018    0.05540000
opls_145-88    C    0.53430014    0.69430014    0.45020047    -0.20360000
opls_145-89    C    0.53110001    0.65740001    0.35880054    -0.21000000
opls_145-90    C    0.03819995    0.03009990    0.47509967    -0.21010000
opls_145-91    C    0.00630000    0.04130017    0.57720014    0.01030000
opls_142-92    C    0.01360010    0.08199986    0.65309945    0.09330000
opls_145-93    C    0.96800014    0.01070004    0.60129970    -0.20360000
opls_145-94    C    0.98810005    0.13330003    0.84079964    0.20340000
opls_145-95    C    0.94869983    0.14709994    0.91480009    -0.20990000
opls_145-96    C    0.95180005    0.18419988    0.00609979    -0.20410000
opls_145-97    C    0.99529989    0.20730010    0.02960018    0.05540000
opls_145-98    C    0.03430014    0.19430014    0.95020047    -0.20360000
opls_145-99    C    0.03110001    0.15740001    0.85880054    -0.21000000
opls_145-100    C    0.96180005    0.46990010    0.47509967    -0.21010000
opls_145-101    C    0.99370000    0.45869983    0.57720014    0.01030000
opls_142-102    C    0.98639990    0.41800014    0.65309945    0.09330000
opls_145-103    C    0.03199986    0.48929996    0.60129970    -0.20350000
opls_145-104    C    0.01189995    0.36669997    0.84079964    0.20340000
opls_145-105    C    0.05130017    0.35290006    0.91480009    -0.20990000
opls_145-106    C    0.04819995    0.31580012    0.00609979    -0.20410000
opls_145-107    C    0.00470011    0.29269990    0.02960018    0.05540000
opls_145-108    C    0.96569986    0.30569986    0.95020047    -0.20360000
opls_145-109    C    0.96889999    0.34259999    0.85880054    -0.20990000
opls_145-110    C    0.46180005    0.96990010    0.97509967    -0.21010000
opls_145-111    C    0.49370000    0.95869983    0.07720014    0.01030000
opls_142-112    C    0.48639990    0.91800014    0.15309945    0.09330000
opls_145-113    C    0.53199986    0.98929996    0.10129970    -0.20360000
opls_145-114    C    0.51189995    0.86669997    0.34079964    0.20340000
opls_145-115    C    0.55130017    0.85290006    0.41480009    -0.20990000
opls_145-116    C    0.54819995    0.81580012    0.50609979    -0.20410000
opls_145-117    C    0.50470011    0.79269990    0.52960018    0.05540000
opls_145-118    C    0.46569986    0.80569986    0.45020047    -0.20350000
opls_145-119    C    0.46889999    0.84259999    0.35880054    -0.21000000
opls_145-120    C    0.71990010    0.28819995    0.72509967    -0.21000000
opls_145-121    C    0.70869983    0.25630000    0.82720014    0.01030000
opls_142-122    C    0.66800014    0.26360010    0.90309945    0.09330000
opls_145-123    C    0.73929996    0.21800014    0.85129970    -0.20360000
opls_145-124    C    0.61669997    0.23810005    0.09079964    0.20340000
opls_145-125    C    0.60290006    0.19869983    0.16480009    -0.20970000
opls_145-126    C    0.56580012    0.20180005    0.25609979    -0.20410000
opls_145-127    C    0.54269990    0.24529989    0.27960018    0.05540000
opls_145-128    C    0.55569986    0.28430014    0.20020047    -0.20360000
opls_145-129    C    0.59259999    0.28110001    0.10880054    -0.21000000
opls_145-130    C    0.21990010    0.78819995    0.22509967    -0.21000000
opls_145-131    C    0.20869983    0.75630000    0.32720014    0.01030000
opls_142-132    C    0.16800014    0.76360010    0.40309945    0.09330000
opls_145-133    C    0.23929996    0.71800014    0.35129970    -0.20350000
opls_145-134    C    0.11669997    0.73810005    0.59079964    0.20340000
opls_145-135    C    0.10290006    0.69869983    0.66480009    -0.20990000
opls_145-136    C    0.06580012    0.70180005    0.75609979    -0.20410000
opls_145-137    C    0.04269990    0.74529989    0.77960018    0.05540000
opls_145-138    C    0.05569986    0.78430014    0.70020047    -0.20360000
opls_145-139    C    0.09259999    0.78110001    0.60880054    -0.21000000
opls_145-140    C    0.78009990    0.71180005    0.22509967    -0.21010000
opls_145-141    C    0.79130017    0.74370000    0.32720014    0.01030000
opls_142-142    C    0.83199986    0.73639990    0.40309945    0.09330000
opls_145-143    C    0.76070004    0.78199986    0.35129970    -0.20360000
opls_145-144    C    0.88330003    0.76189995    0.59079964    0.20340000
opls_145-145    C    0.89709994    0.80130017    0.66480009    -0.20990000
opls_145-146    C    0.93419988    0.79819995    0.75609979    -0.20410000
opls_145-147    C    0.95730010    0.75470011    0.77960018    0.05540000
opls_145-148    C    0.94430014    0.71569986    0.70020047    -0.20360000
opls_145-149    C    0.90740001    0.71889999    0.60880054    -0.20990000
opls_145-150    C    0.28009990    0.21180005    0.72509967    -0.21000000
opls_145-151    C    0.29130017    0.24370000    0.82720014    0.01030000
opls_142-152    C    0.33199986    0.23639990    0.90309945    0.09330000
opls_145-153    C    0.26070004    0.28199986    0.85129970    -0.20360000
opls_145-154    C    0.38330003    0.26189995    0.09079964    0.20340000
opls_145-155    C    0.39709994    0.30130017    0.16480009    -0.20990000
opls_145-156    C    0.43419988    0.29819995    0.25609979    -0.20390000
opls_145-157    C    0.45730010    0.25470011    0.27960018    0.05540000
opls_145-158    C    0.44430014    0.21569986    0.20020047    -0.20360000
opls_145-159    C    0.40740001    0.21889999    0.10880054    -0.21000000
opls_139-160    C    0.00000000    0.25000000    0.12499944    -0.00950000
opls_139-161    C    0.50000000    0.75000000    0.62500056    -0.00950000
opls_139-162    C    0.50000000    0.25000000    0.37500056    -0.00950000
opls_139-163    C    0.00000000    0.75000000    0.87499944    -0.00950000
opls_750-164    N    0.51669997    0.40599993    0.74839959    -0.18950000
opls_750-165    N    0.01669997    0.90599993    0.24839959    -0.18930000
opls_750-166    N    0.98330003    0.59400007    0.24839959    -0.18950000
opls_750-167    N    0.48330003    0.09400007    0.74839959    -0.18950000
opls_750-168    N    0.34400007    0.76669997    0.99839959    -0.18950000
opls_750-169    N    0.84400007    0.26669997    0.49839959    -0.18950000
opls_750-170    N    0.15599993    0.23330003    0.49839959    -0.18950000
opls_750-171    N    0.65599993    0.73330003    0.99839959    -0.18950000
opls_750-172    N    0.48330003    0.59400007    0.25160041    -0.18950000
opls_750-173    N    0.98330003    0.09400007    0.75160041    -0.18950000
opls_750-174    N    0.01669997    0.40599993    0.75160041    -0.18940000
opls_750-175    N    0.51669997    0.90599993    0.25160041    -0.18950000
opls_750-176    N    0.65599993    0.23330003    0.00160041    -0.18940000
opls_750-177    N    0.15599993    0.73330003    0.50160041    -0.18930000
opls_750-178    N    0.84400007    0.76669997    0.50160041    -0.18950000
opls_750-179    N    0.34400007    0.26669997    0.00160041    -0.18950000
opls_146-180    H    0.43180005    0.44709994    0.04590044    0.10330000
opls_144-181    H    0.45630000    0.39569986    0.86889965    0.09750000
opls_146-182    H    0.55740001    0.48189995    0.82079964    0.22980000
opls_146-183    H    0.58489992    0.37060014    0.59960018    0.08590000
opls_146-184    H    0.58030007    0.30519999    0.44440027    0.22980000
opls_146-185    H    0.43220002    0.28740001    0.53960018    0.09480000
opls_146-186    H    0.43740001    0.35269990    0.69569997    0.22960000
opls_146-187    H    0.93180005    0.94709994    0.54590044    0.10330000
opls_144-188    H    0.95630000    0.89569986    0.36889965    0.09750000
opls_146-189    H    0.05740001    0.98189995    0.32079964    0.22980000
opls_146-190    H    0.08489992    0.87060014    0.09960018    0.08590000
opls_146-191    H    0.08030007    0.80519999    0.94440027    0.22970000
opls_146-192    H    0.93220002    0.78740001    0.03960018    0.09480000
opls_146-193    H    0.93740001    0.85269990    0.19569997    0.22950000
opls_146-194    H    0.06819995    0.55290006    0.54590044    0.10330000
opls_144-195    H    0.04370000    0.60430014    0.36889965    0.09750000
opls_146-196    H    0.94259999    0.51810005    0.32079964    0.22990000
opls_146-197    H    0.91510008    0.62939986    0.09960018    0.08590000
opls_146-198    H    0.91969993    0.69480001    0.94440027    0.22970000
opls_146-199    H    0.06779998    0.71259999    0.03960018    0.09480000
opls_146-200    H    0.06259999    0.64730010    0.19569997    0.22950000
opls_146-201    H    0.56819995    0.05290006    0.04590044    0.10340000
opls_144-202    H    0.54370000    0.10430014    0.86889965    0.09750000
opls_146-203    H    0.44259999    0.01810005    0.82079964    0.22980000
opls_146-204    H    0.41510008    0.12939986    0.59960018    0.08590000
opls_146-205    H    0.41969993    0.19480001    0.44440027    0.22970000
opls_146-206    H    0.56779998    0.21259999    0.53960018    0.09480000
opls_146-207    H    0.56259999    0.14730010    0.69569997    0.22960000
opls_146-208    H    0.30290006    0.68180005    0.29590044    0.10330000
opls_144-209    H    0.35430014    0.70630000    0.11889965    0.09750000
opls_146-210    H    0.26810005    0.80740001    0.07079964    0.22980000
opls_146-211    H    0.37939986    0.83489992    0.84960018    0.08590000
opls_146-212    H    0.44480001    0.83030007    0.69440027    0.22970000
opls_146-213    H    0.46259999    0.68220002    0.78960018    0.09480000
opls_146-214    H    0.39730010    0.68740001    0.94569997    0.22950000
opls_146-215    H    0.80290006    0.18180005    0.79590044    0.10330000
opls_144-216    H    0.85430014    0.20630000    0.61889965    0.09750000
opls_146-217    H    0.76810005    0.30740001    0.57079964    0.22980000
opls_146-218    H    0.87939986    0.33489992    0.34960018    0.08590000
opls_146-219    H    0.94480001    0.33030007    0.19440027    0.22970000
opls_146-220    H    0.96259999    0.18220002    0.28960018    0.09480000
opls_146-221    H    0.89730010    0.18740001    0.44569997    0.22950000
opls_146-222    H    0.19709994    0.31819995    0.79590044    0.10330000
opls_144-223    H    0.14569986    0.29370000    0.61889965    0.09750000
opls_146-224    H    0.23189995    0.19259999    0.57079964    0.22990000
opls_146-225    H    0.12060014    0.16510008    0.34960018    0.08590000
opls_146-226    H    0.05519999    0.16969993    0.19440027    0.22990000
opls_146-227    H    0.03740001    0.31779998    0.28960018    0.09480000
opls_146-228    H    0.10269990    0.31259999    0.44569997    0.22950000
opls_146-229    H    0.69709994    0.81819995    0.29590044    0.10340000
opls_144-230    H    0.64569986    0.79370000    0.11889965    0.09750000
opls_146-231    H    0.73189995    0.69259999    0.07079964    0.22990000
opls_146-232    H    0.62060014    0.66510008    0.84960018    0.08590000
opls_146-233    H    0.55519999    0.66969993    0.69440027    0.22970000
opls_146-234    H    0.53740001    0.81779998    0.78960018    0.09480000
opls_146-235    H    0.60269990    0.81259999    0.94569997    0.22950000
opls_146-236    H    0.56819995    0.55290006    0.95409956    0.10330000
opls_144-237    H    0.54370000    0.60430014    0.13110035    0.09750000
opls_146-238    H    0.44259999    0.51810005    0.17920036    0.22980000
opls_146-239    H    0.41510008    0.62939986    0.40039982    0.08590000
opls_146-240    H    0.41969993    0.69480001    0.55559973    0.22970000
opls_146-241    H    0.56779998    0.71259999    0.46039982    0.09480000
opls_146-242    H    0.56259999    0.64730010    0.30430003    0.22960000
opls_146-243    H    0.06819995    0.05290006    0.45409956    0.10330000
opls_144-244    H    0.04370000    0.10430014    0.63110035    0.09750000
opls_146-245    H    0.94259999    0.01810005    0.67920036    0.22980000
opls_146-246    H    0.91510008    0.12939986    0.90039982    0.08590000
opls_146-247    H    0.91969993    0.19480001    0.05559973    0.22970000
opls_146-248    H    0.06779998    0.21259999    0.96039982    0.09480000
opls_146-249    H    0.06259999    0.14730010    0.80430003    0.22950000
opls_146-250    H    0.93180005    0.44709994    0.45409956    0.10330000
opls_144-251    H    0.95630000    0.39569986    0.63110035    0.09750000
opls_146-252    H    0.05740001    0.48189995    0.67920036    0.22980000
opls_146-253    H    0.08489992    0.37060014    0.90039982    0.08600000
opls_146-254    H    0.08030007    0.30519999    0.05559973    0.22970000
opls_146-255    H    0.93220002    0.28740001    0.96039982    0.09480000
opls_146-256    H    0.93740001    0.35269990    0.80430003    0.22950000
opls_146-257    H    0.43180005    0.94709994    0.95409956    0.10330000
opls_144-258    H    0.45630000    0.89569986    0.13110035    0.09750000
opls_146-259    H    0.55740001    0.98189995    0.17920036    0.22990000
opls_146-260    H    0.58489992    0.87060014    0.40039982    0.08590000
opls_146-261    H    0.58030007    0.80519999    0.55559973    0.22970000
opls_146-262    H    0.43220002    0.78740001    0.46039982    0.09480000
opls_146-263    H    0.43740001    0.85269990    0.30430003    0.22950000
opls_146-264    H    0.69709994    0.31819995    0.70409956    0.10330000
opls_144-265    H    0.64569986    0.29370000    0.88110035    0.09750000
opls_146-266    H    0.73189995    0.19259999    0.92920036    0.22980000
opls_146-267    H    0.62060014    0.16510008    0.15039982    0.08590000
opls_146-268    H    0.55519999    0.16969993    0.30559973    0.22970000
opls_146-269    H    0.53740001    0.31779998    0.21039982    0.09480000
opls_146-270    H    0.60269990    0.31259999    0.05430003    0.22960000
opls_146-271    H    0.19709994    0.81819995    0.20409956    0.10330000
opls_144-272    H    0.14569986    0.79370000    0.38110035    0.09750000
opls_146-273    H    0.23189995    0.69259999    0.42920036    0.22980000
opls_146-274    H    0.12060014    0.66510008    0.65039982    0.08590000
opls_146-275    H    0.05519999    0.66969993    0.80559973    0.22990000
opls_146-276    H    0.03740001    0.81779998    0.71039982    0.09480000
opls_146-277    H    0.10269990    0.81259999    0.55430003    0.22950000
opls_146-278    H    0.80290006    0.68180005    0.20409956    0.10330000
opls_144-279    H    0.85430014    0.70630000    0.38110035    0.09750000
opls_146-280    H    0.76810005    0.80740001    0.42920036    0.22980000
opls_146-281    H    0.87939986    0.83489992    0.65039982    0.08600000
opls_146-282    H    0.94480001    0.83030007    0.80559973    0.22970000
opls_146-283    H    0.96259999    0.68220002    0.71039982    0.09480000
opls_146-284    H    0.89730010    0.68740001    0.55430003    0.22950000
opls_146-285    H    0.30290006    0.18180005    0.70409956    0.10340000
opls_144-286    H    0.35430014    0.20630000    0.88110035    0.09750000
opls_146-287    H    0.26810005    0.30740001    0.92920036    0.22980000
opls_146-288    H    0.37939986    0.33489992    0.15039982    0.08590000
opls_146-289    H    0.44480001    0.33030007    0.30559973    0.22970000
opls_146-290    H    0.46259999    0.18220002    0.21039982    0.09480000
opls_146-291    H    0.39730010    0.18740001    0.05430003    0.22950000
