#======================================================================
# Crystal Data Generated By AuToFF
#----------------------------------------------------------------------

data_AuToFF_phase_1

_cell_length_a                         36.7694
_cell_length_b                         36.7694
_cell_length_c                         4.2426
_cell_angle_alpha                      90.00
_cell_angle_beta                       90.00
_cell_angle_gamma                      120.00
_symmetry_space_group_name_H-M_alt     'P 1'
_symmetry_space_group_IT_number        1

loop_
_space_group_symop_operation_xyz
   'x, y, z'

loop_
   _atom_site_label
   _atom_site_type_symbol
   _atom_site_fract_x
   _atom_site_fract_y
   _atom_site_fract_z
   _atom_site_charge
opls_180-0    O    0.36595997    0.30438998    0.90597040    -0.19200000
opls_179-1    O    0.43412995    0.38907014    0.02261113    -0.22730000
opls_179-2    O    0.39254009    0.43169992    0.24924103    -0.23170000
opls_180-3    O    0.28586006    0.35126996    0.09035969    -0.19120000
opls_180-4    O    0.22012001    0.27616011    0.91994060    -0.19860000
opls_180-5    O    0.27695006    0.24252000    0.88627021    -0.20960000
opls_180-6    O    0.69561014    0.06157007    0.90597040    -0.19200000
opls_179-7    O    0.61092993    0.04506013    0.02261113    -0.22730000
opls_179-8    O    0.56829988    0.96084003    0.24924103    -0.23170000
opls_180-9    O    0.64873020    0.93459018    0.09035969    -0.19110000
opls_180-10    O    0.72384004    0.94396014    0.91994060    -0.19860000
opls_180-11    O    0.75747997    0.03442992    0.88627021    -0.20960000
opls_180-12    O    0.93842990    0.63403995    0.90597040    -0.19200000
opls_179-13    O    0.95494001    0.56587005    0.02261113    -0.22730000
opls_179-14    O    0.03916003    0.60746005    0.24924103    -0.23180000
opls_180-15    O    0.06541018    0.71414018    0.09035969    -0.19120000
opls_180-16    O    0.05604010    0.77988006    0.91994060    -0.19860000
opls_180-17    O    0.96556998    0.72305008    0.88627021    -0.20960000
opls_182-18    C    0.23541000    0.22052003    0.00584076    -0.01350000
opls_182-19    C    0.22328009    0.25072017    0.15534106    -0.01750000
opls_182-20    C    0.21125021    0.30603020    0.05708056    -0.01350000
opls_182-21    C    0.24819007    0.35027006    0.00733984    -0.02200000
opls_182-22    C    0.34906012    0.26098012    0.96004101    -0.02070000
opls_182-23    C    0.30566995    0.24268989    0.10869043    -0.01130000
opls_182-24    C    0.40656984    0.32115995    0.77572008    -0.01770000
opls_182-25    C    0.42567008    0.36819004    0.72558101    -0.01740000
opls_166-26    C    0.43254011    0.45360003    0.10824023    0.26640000
opls_166-27    C    0.45451994    0.43302014    0.00667987    0.17430000
opls_182-28    C    0.31800998    0.39291020    0.14864941    -0.01700000
opls_182-29    C    0.36036022    0.39622017    0.08565974    -0.01350000
opls_700-30    C    0.49789986    0.45728998    0.92440013    -0.00520000
opls_145-31    C    0.51723019    0.50133011    0.93338047    -0.11140000
opls_145-32    C    0.49503995    0.52113997    0.01887993    -0.13020000
opls_700-33    C    0.45290999    0.49781005    0.10784896    -0.04050000
opls_145-34    C    0.67743001    0.37560009    0.66624947    -0.17570000
opls_700-35    C    0.63493020    0.34411019    0.66760006    0.05520000
opls_142-36    C    0.60124990    0.35463990    0.69385047    0.06990000
opls_700-37    C    0.52484006    0.43845992    0.84711026    0.06690000
opls_145-38    C    0.51944002    0.40207008    0.99970066    -0.12180000
opls_145-39    C    0.54602001    0.38608018    0.93598972    -0.17250000
opls_145-40    C    0.57967002    0.40691004    0.72510960    0.18540000
opls_145-41    C    0.58595994    0.44358000    0.57786970    -0.17030000
opls_145-42    C    0.55833994    0.45862998    0.63157026    -0.13340000
opls_700-43    C    0.43017011    0.52021010    0.19464008    0.06100000
opls_145-44    C    0.44876014    0.55531019    0.39510913    -0.12800000
opls_145-45    C    0.42813003    0.57757018    0.46434969    -0.17180000
opls_145-46    C    0.38845996    0.56508997    0.33260972    0.18800000
opls_145-47    C    0.36964993    0.52970003    0.13758073    -0.17240000
opls_145-48    C    0.39051995    0.50780998    0.06519116    -0.11960000
opls_700-49    C    0.35742994    0.64664012    0.50441946    0.05560000
opls_145-50    C    0.37721006    0.69058007    0.50683072    -0.17240000
opls_142-51    C    0.38323015    0.62638024    0.47808891    0.06960000
opls_182-52    C    0.77947997    0.01489014    0.00584076    -0.01350000
opls_182-53    C    0.74928007    0.97256026    0.15534106    -0.01750000
opls_182-54    C    0.69396996    0.90522004    0.05708056    -0.01350000
opls_182-55    C    0.64973004    0.89792022    0.00733984    -0.02200000
opls_182-56    C    0.73902004    0.08807995    0.96004101    -0.02070000
opls_182-57    C    0.75731016    0.06298011    0.10869043    -0.01130000
opls_182-58    C    0.67883993    0.08540999    0.77572008    -0.01770000
opls_182-59    C    0.63180996    0.05748004    0.72558101    -0.01740000
opls_166-60    C    0.54640008    0.97894026    0.10824023    0.26640000
opls_166-61    C    0.56697992    0.02150002    0.00667987    0.17430000
opls_182-62    C    0.60709015    0.92510025    0.14864941    -0.01700000
opls_182-63    C    0.60378003    0.96414026    0.08565974    -0.01350000
opls_700-64    C    0.54270999    0.04060989    0.92440013    -0.00520000
opls_145-65    C    0.49867004    0.01590008    0.93338047    -0.11140000
opls_145-66    C    0.47886025    0.97390026    0.01887993    -0.13020000
opls_700-67    C    0.50219007    0.95510003    0.10784896    -0.04050000
opls_145-68    C    0.62439998    0.30182993    0.66624947    -0.17570000
opls_700-69    C    0.65588994    0.29082006    0.66760006    0.05520000
opls_142-70    C    0.64536004    0.24661003    0.69385047    0.06990000
opls_700-71    C    0.56154007    0.08638006    0.84711026    0.06690000
opls_145-72    C    0.59793013    0.11737000    0.99970066    -0.12180000
opls_145-73    C    0.61392003    0.15994012    0.93598972    -0.17250000
opls_145-74    C    0.59308998    0.17276011    0.72510960    0.18540000
opls_145-75    C    0.55642012    0.14238003    0.57786970    -0.17030000
opls_145-76    C    0.54136998    0.09971005    0.63157026    -0.13340000
opls_700-77    C    0.47979010    0.90996014    0.19464008    0.06100000
opls_145-78    C    0.44468998    0.89345019    0.39510913    -0.12790000
opls_145-79    C    0.42243011    0.85056007    0.46434969    -0.17180000
opls_145-80    C    0.43491001    0.82336999    0.33260972    0.18800000
opls_145-81    C    0.47029998    0.83994997    0.13758073    -0.17240000
opls_145-82    C    0.49218997    0.88271008    0.06519116    -0.11960000
opls_700-83    C    0.35335989    0.71079002    0.50441946    0.05560000
opls_145-84    C    0.30942001    0.68663009    0.50683072    -0.17240000
opls_142-85    C    0.37361994    0.75685004    0.47808891    0.06970000
opls_182-86    C    0.98511019    0.76459015    0.00584076    -0.01350000
opls_182-87    C    0.02744015    0.77672020    0.15534106    -0.01750000
opls_182-88    C    0.09477999    0.78875007    0.05708056    -0.01350000
opls_182-89    C    0.10208005    0.75181004    0.00733984    -0.02200000
opls_182-90    C    0.91192000    0.65094025    0.96004101    -0.02070000
opls_182-91    C    0.93701988    0.69433000    0.10869043    -0.01130000
opls_182-92    C    0.91458995    0.59343006    0.77572008    -0.01770000
opls_182-93    C    0.94251996    0.57432993    0.72558101    -0.01740000
opls_166-94    C    0.02105996    0.56746002    0.10824023    0.26650000
opls_166-95    C    0.97850003    0.54548015    0.00667987    0.17430000
opls_182-96    C    0.07490018    0.68199017    0.14864941    -0.01700000
opls_182-97    C    0.03586007    0.63964020    0.08565974    -0.01350000
opls_700-98    C    0.95939015    0.50210013    0.92440013    -0.00520000
opls_145-99    C    0.98409993    0.48277012    0.93338047    -0.11140000
opls_145-100    C    0.02609995    0.50496008    0.01887993    -0.13020000
opls_700-101    C    0.04490010    0.54709023    0.10784896    -0.04050000
opls_145-102    C    0.69817001    0.32256998    0.66624947    -0.17570000
opls_700-103    C    0.70918001    0.36507006    0.66760006    0.05520000
opls_142-104    C    0.75339006    0.39875006    0.69385047    0.06990000
opls_700-105    C    0.91362014    0.47516003    0.84711026    0.06690000
opls_145-106    C    0.88262985    0.48055992    0.99970066    -0.12180000
opls_145-107    C    0.84006011    0.45398001    0.93598972    -0.17250000
opls_145-108    C    0.82724015    0.42033016    0.72510960    0.18540000
opls_145-109    C    0.85761994    0.41403997    0.57786970    -0.17030000
opls_145-110    C    0.90029008    0.44165997    0.63157026    -0.13340000
opls_700-111    C    0.09003995    0.56983007    0.19464008    0.06100000
opls_145-112    C    0.10655003    0.55123993    0.39510913    -0.12800000
opls_145-113    C    0.14944001    0.57187006    0.46434969    -0.17180000
opls_145-114    C    0.17663003    0.61154004    0.33260972    0.18810000
opls_145-115    C    0.16005009    0.63035000    0.13758073    -0.17240000
opls_145-116    C    0.11729008    0.60947994    0.06519116    -0.11950000
opls_700-117    C    0.28921005    0.64257018    0.50441946    0.05570000
opls_145-118    C    0.31337009    0.62279015    0.50683072    -0.17240000
opls_142-119    C    0.24315007    0.61677003    0.47808891    0.06960000
opls_750-120    N    0.60957987    0.39330998    0.67382973    -0.35750000
opls_750-121    N    0.36640991    0.58750007    0.38809928    -0.35760000
opls_750-122    N    0.60669012    0.21627015    0.67382973    -0.35750000
opls_750-123    N    0.41249997    0.77890999    0.38809928    -0.35760000
opls_750-124    N    0.78373017    0.39042019    0.67382973    -0.35760000
opls_750-125    N    0.22108984    0.63358993    0.38809928    -0.35750000
opls_185-126    H    0.22998000    0.19541014    0.17847075    0.05690000
opls_185-127    H    0.21377993    0.20426006    0.80597982    0.05730000
opls_185-128    H    0.19237994    0.23175005    0.27453920    0.05700000
opls_185-129    H    0.24735012    0.27019998    0.33432094    0.05700000
opls_185-130    H    0.20356006    0.30119997    0.31380993    0.05720000
opls_185-131    H    0.18325011    0.30363000    0.93771037    0.05730000
opls_185-132    H    0.24953016    0.35883012    0.75453024    0.05770000
opls_185-133    H    0.24253992    0.37228007    0.15252911    0.05610000
opls_185-134    H    0.36929012    0.25543012    0.12556923    0.05700000
opls_185-135    H    0.34617992    0.24400006    0.73581059    0.05700000
opls_185-136    H    0.29619005    0.21021015    0.18719889    0.05720000
opls_185-137    H    0.30791010    0.26209998    0.31648046    0.05730000
opls_185-138    H    0.40502996    0.30654993    0.54289115    0.05690000
opls_185-139    H    0.42769000    0.31599998    0.93483006    0.05720000
opls_185-140    H    0.45486006    0.37949008    0.58863904    0.06900000
opls_185-141    H    0.40366014    0.37408014    0.58749116    0.06460000
opls_185-142    H    0.31631003    0.40065000    0.39950973    0.05740000
opls_185-143    H    0.31551011    0.41631015    0.99645972    0.05610000
opls_185-144    H    0.35927011    0.36729000    0.17374959    0.05720000
opls_185-145    H    0.36580003    0.39897020    0.82740065    0.05720000
opls_146-146    H    0.55031006    0.52105016    0.88244001    0.11840000
opls_146-147    H    0.51111990    0.55513998    0.01769905    0.11350000
opls_146-148    H    0.68594007    0.40838005    0.67378023    0.11670000
opls_144-149    H    0.56936000    0.32951996    0.73411116    0.10460000
opls_146-150    H    0.49579996    0.38652015    0.17777071    0.11480000
opls_146-151    H    0.54145998    0.35871016    0.06471032    0.11770000
opls_146-152    H    0.61188993    0.46008995    0.41559893    0.11410000
opls_146-153    H    0.56338012    0.48616017    0.50266110    0.11770000
opls_146-154    H    0.47924012    0.56545018    0.49906897    0.11560000
opls_146-155    H    0.44304019    0.60392021    0.62426107    0.11870000
opls_146-156    H    0.33928003    0.51991020    0.03265922    0.11410000
opls_146-157    H    0.37636997    0.48211001    0.89889926    0.12010000
opls_146-158    H    0.41118997    0.70898021    0.50091925    0.11650000
opls_144-159    H    0.41666998    0.64552999    0.50759911    0.09990000
opls_185-160    H    0.80458993    0.03456999    0.17847075    0.05690000
opls_185-161    H    0.79574004    0.00952008    0.80597982    0.05730000
opls_185-162    H    0.76825020    0.96063025    0.27453920    0.05700000
opls_185-163    H    0.72980016    0.97715025    0.33432094    0.05700000
opls_185-164    H    0.69880008    0.90236009    0.31380993    0.05730000
opls_185-165    H    0.69637020    0.87962025    0.93771037    0.05730000
opls_185-166    H    0.64116997    0.89070016    0.75453024    0.05770000
opls_185-167    H    0.62772004    0.87026002    0.15252911    0.05610000
opls_185-168    H    0.74456999    0.11385999    0.12556923    0.05700000
opls_185-169    H    0.75600004    0.10217996    0.73581059    0.05700000
opls_185-170    H    0.78979004    0.08597997    0.18719889    0.05730000
opls_185-171    H    0.73790010    0.04581005    0.31648046    0.05730000
opls_185-172    H    0.69345011    0.09847996    0.54289115    0.05690000
opls_185-173    H    0.68399993    0.11168999    0.93483006    0.05720000
opls_185-174    H    0.62051005    0.07536987    0.58863904    0.06900000
opls_185-175    H    0.62591986    0.02957991    0.58749116    0.06460000
opls_185-176    H    0.59935025    0.91566025    0.39950973    0.05740000
opls_185-177    H    0.58369015    0.89920024    0.99645972    0.05610000
opls_185-178    H    0.63270998    0.99198008    0.17374959    0.05720000
opls_185-179    H    0.60102992    0.96683000    0.82740065    0.05720000
opls_146-180    H    0.47895001    0.02925991    0.88244001    0.11840000
opls_146-181    H    0.44486015    0.95598028    0.01769905    0.11350000
opls_146-182    H    0.59162018    0.27756010    0.67378023    0.11670000
opls_144-183    H    0.67047997    0.23983999    0.73411116    0.10460000
opls_146-184    H    0.61347999    0.10928006    0.17777071    0.11480000
opls_146-185    H    0.64128987    0.18274999    0.06471032    0.11500000
opls_146-186    H    0.53990998    0.15179993    0.41559893    0.11410000
opls_146-187    H    0.51383988    0.07721987    0.50266110    0.11770000
opls_146-188    H    0.43455014    0.91379015    0.49906897    0.11560000
opls_146-189    H    0.39607986    0.83911996    0.62426107    0.11870000
opls_146-190    H    0.48009005    0.81937008    0.03265922    0.11410000
opls_146-191    H    0.51788997    0.89426010    0.89889926    0.12020000
opls_146-192    H    0.29102007    0.70221017    0.50091925    0.11650000
opls_144-193    H    0.35446998    0.77114005    0.50759911    0.09990000
opls_185-194    H    0.96543023    0.77002019    0.17847075    0.05690000
opls_185-195    H    0.99048019    0.78622018    0.80597982    0.05730000
opls_185-196    H    0.03937001    0.80762002    0.27453920    0.05700000
opls_185-197    H    0.02285015    0.75265009    0.33432094    0.05710000
opls_185-198    H    0.09764002    0.79644025    0.31380993    0.05720000
opls_185-199    H    0.12038012    0.81675006    0.93771037    0.05730000
opls_185-200    H    0.10930003    0.75047004    0.75453024    0.05770000
opls_185-201    H    0.12974019    0.75746022    0.15252911    0.05610000
opls_185-202    H    0.88614005    0.63071020    0.12556923    0.05700000
opls_185-203    H    0.89782004    0.65381998    0.73581059    0.05700000
opls_185-204    H    0.91402006    0.70381020    0.18719889    0.05720000
opls_185-205    H    0.95419007    0.69208997    0.31648046    0.05730000
opls_185-206    H    0.90151993    0.59497011    0.54289115    0.05690000
opls_185-207    H    0.88831007    0.57231003    0.93483006    0.05720000
opls_185-208    H    0.92462989    0.54514005    0.58863904    0.06900000
opls_185-209    H    0.97042000    0.59633994    0.58749116    0.06460000
opls_185-210    H    0.08434015    0.68369007    0.39950973    0.05740000
opls_185-211    H    0.10080006    0.68449024    0.99645972    0.05620000
opls_185-212    H    0.00802007    0.64073023    0.17374959    0.05720000
opls_185-213    H    0.03316994    0.63420011    0.82740065    0.05720000
opls_146-214    H    0.97073992    0.44968993    0.88244001    0.11840000
opls_146-215    H    0.04402011    0.48888005    0.01769905    0.11350000
opls_146-216    H    0.72244018    0.31406016    0.67378023    0.11670000
opls_144-217    H    0.76016003    0.43064004    0.73411116    0.10450000
opls_146-218    H    0.89071994    0.50420011    0.17777071    0.11480000
opls_146-219    H    0.81725003    0.45854017    0.06471032    0.11770000
opls_146-220    H    0.84820009    0.38811013    0.41559893    0.11420000
opls_146-221    H    0.92278000    0.43661997    0.50266110    0.11770000
opls_146-222    H    0.08620989    0.52075999    0.49906897    0.11560000
opls_146-223    H    0.16088011    0.55696015    0.62426107    0.11880000
opls_146-224    H    0.18063008    0.66072003    0.03265922    0.11410000
opls_146-225    H    0.10574021    0.62363020    0.89889926    0.12010000
opls_146-226    H    0.29778984    0.58880993    0.50091925    0.11650000
opls_144-227    H    0.22886004    0.58332996    0.50759911    0.09990000
