#======================================================================
# Crystal Data Generated By AuToFF
#----------------------------------------------------------------------

data_AuToFF_phase_1

_cell_length_a                         10.5000
_cell_length_b                         10.5000
_cell_length_c                         3.3900
_cell_angle_alpha                      90.00
_cell_angle_beta                       90.00
_cell_angle_gamma                      120.00
_symmetry_space_group_name_H-M_alt     'P 1'
_symmetry_space_group_IT_number        1

loop_
_space_group_symop_operation_xyz
   'x, y, z'

loop_
   _atom_site_label
   _atom_site_type_symbol
   _atom_site_fract_x
   _atom_site_fract_y
   _atom_site_fract_z
   _atom_site_charge
opls_281-0    O    0.14092050    0.35102004    0.49079056    -0.45920000
opls_281-1    O    0.65557013    0.70406026    0.48484071    -0.45920000
opls_281-2    O    0.30256047    0.86565999    0.50599115    -0.45770000
opls_280-3    C    0.24546963    0.48388973    0.49217109    0.16760000
opls_700-4    C    0.40083995    0.52139989    0.48745133    -0.10520000
opls_280-5    C    0.52269994    0.67572941    0.48902950    0.16760000
opls_700-6    C    0.48521034    0.79359020    0.49553097    -0.11050000
opls_142-7    C    0.59493015    0.94018983    0.49728909    -0.08740000
opls_280-8    C    0.33089031    0.76111014    0.50043068    0.16760000
opls_700-9    C    0.21303052    0.60576008    0.49863127    -0.11050000
opls_142-10    C    0.06641966    0.56886027    0.50302950    0.07310000
opls_142-11    C    0.43031026    0.40763004    0.48307965    0.06260000
opls_141-12    C    0.68963995    0.31140943    0.47525074    0.39480000
opls_238-13    N    0.55053021    0.42682995    0.47230973    -0.11490000
opls_238-14    N    0.70278984    0.19301967    0.49131858    -0.24660000
opls_238-15    N    0.80683039    0.44663031    0.50333923    -0.25050000
opls_238-16    N    0.57518926    0.05783948    0.49964012    -0.06790000
opls_238-17    N    0.55725059    0.29868023    0.46341003    -0.25040000
opls_238-18    N    0.94584966    0.46604027    0.49384956    -0.11490000
opls_144-19    H    0.03610951    0.65888949    0.52118879    0.02570000
opls_910-20    H    0.81360047    0.20413998    0.49769027    0.21280000
opls_910-21    H    0.45444020    0.19052992    0.44697050    0.21270000
opls_910-22    H    0.96150024    0.36925001    0.47274041    0.21270000
opls_910-23    H    0.64600017    0.54044035    0.47007080    0.21270000
opls_144-24    H    0.33608051    0.28894006    0.49000885    0.02570000
opls_144-25    H    0.71543979    0.97051006    0.49679941    0.02570000
opls_910-26    H    0.46661021    0.05178995    0.50756047    0.21270000
opls_910-27    H    0.79145989    0.54332930    0.53441003    0.26040000
opls_402-28    Br    0.88756921    0.73555938    0.28307965    0.40050000
