#======================================================================
# Crystal Data Generated By AuToFF
#----------------------------------------------------------------------

data_AuToFF_phase_1

_cell_length_a                         15.7410
_cell_length_b                         15.7410
_cell_length_c                         4.3310
_cell_angle_alpha                      90.00
_cell_angle_beta                       90.00
_cell_angle_gamma                      90.00
_symmetry_space_group_name_H-M_alt     'P 1'
_symmetry_space_group_IT_number        1

loop_
_space_group_symop_operation_xyz
   'x, y, z'

loop_
   _atom_site_label
   _atom_site_type_symbol
   _atom_site_fract_x
   _atom_site_fract_y
   _atom_site_fract_z
   _atom_site_charge
opls_146-0    H    0.27529001    0.97834000    0.31114985    0.12010000
opls_146-1    H    0.35240010    0.11322978    0.31260910    0.12000000
opls_146-2    H    0.17851979    0.21557017    0.62221889    0.11880000
opls_146-3    H    0.10234991    0.07848993    0.61903948    0.09610000
opls_146-4    H    0.07364018    0.76657010    0.14752020    0.09400000
opls_146-5    H    0.15099994    0.63894988    0.15416070    0.12290000
opls_146-6    H    0.37354997    0.76758973    0.78975987    0.11860000
opls_146-7    H    0.29654977    0.90175974    0.78030940    0.12010000
opls_146-8    H    0.07279970    0.11095991    0.22347033    0.06880000
opls_146-9    H    0.97747983    0.22901023    0.27181944    0.11860000
opls_146-10    H    0.78511975    0.09375008    0.74329947    0.12060000
opls_146-11    H    0.87886983    0.97348008    0.69165089    0.12130000
opls_146-12    H    0.88867988    0.89631027    0.25462942    0.12170000
opls_146-13    H    0.80762976    0.76615018    0.16957054    0.11860000
opls_146-14    H    0.98645003    0.68807001    0.45241976    0.12000000
opls_146-15    H    0.06391017    0.82688012    0.52701916    0.08220000
opls_146-16    H    0.62596023    0.58337018    0.08688063    0.09620000
opls_146-17    H    0.67663998    0.31573979    0.25691988    0.11890000
opls_146-18    H    0.86574995    0.47533003    0.82960979    0.12140000
opls_146-19    H    0.52502001    0.57076996    0.36129993    0.12160000
opls_146-20    H    0.30995998    0.43125024    0.01492034    0.12830000
opls_146-21    H    0.54646973    0.30125024    0.18272916    0.12850000
opls_144-22    H    0.39534972    0.64237024    0.34769106    0.06670000
opls_144-23    H    0.72634013    0.67565021    0.89970907    0.03700000
opls_144-24    H    0.90429007    0.33569024    0.92975987    0.06640000
opls_144-25    H    0.43588971    0.21673020    0.07419995    0.03800000
opls_700-26    C    0.03855028    0.94524998    0.95160933    -0.03300000
opls_700-27    C    0.12746014    0.93807001    0.96743015    -0.03120000
opls_700-28    C    0.98470999    0.86747983    0.90005080    0.06910000
opls_700-29    C    0.17672003    0.85125024    0.97189102    0.06120000
opls_700-30    C    0.18179023    0.01824026    0.96226045    0.06380000
opls_700-31    C    0.98487008    0.02743028    0.96534057    0.06610000
opls_145-32    C    0.25438028    0.02892002    0.15096975    -0.12880000
opls_145-33    C    0.29835017    0.10609999    0.15144078    -0.13510000
opls_145-34    C    0.27170002    0.17600978    0.96763103    0.19310000
opls_145-35    C    0.20133028    0.16326028    0.77148003    -0.19890000
opls_145-36    C    0.15873007    0.08584016    0.76577927    -0.12700000
opls_145-37    C    0.14005019    0.77331999    0.07224890    -0.17110000
opls_145-38    C    0.18410012    0.69686996    0.07317940    -0.18070000
opls_145-39    C    0.26901023    0.69175021    0.97586931    0.19350000
opls_145-40    C    0.30708977    0.76835970    0.87283076    -0.13340000
opls_145-41    C    0.26246998    0.84542977    0.86957977    -0.11240000
opls_145-42    C    0.00993012    0.10294009    0.11879012    -0.13170000
opls_145-43    C    0.95534972    0.17233975    0.14383052    -0.17510000
opls_145-44    C    0.87273998    0.17078013    0.01580928    0.20250000
opls_145-45    C    0.84846007    0.09715012    0.85317940    -0.19830000
opls_145-46    C    0.90306016    0.02800013    0.82643962    -0.12810000
opls_145-47    C    0.91002986    0.85215996    0.07214038    -0.12280000
opls_145-48    C    0.86373991    0.77808017    0.02195105    -0.17170000
opls_145-49    C    0.89106982    0.71684010    0.80334103    0.19100000
opls_145-50    C    0.96384029    0.73476971    0.62468945    -0.19520000
opls_145-51    C    0.00794994    0.81045995    0.66570076    -0.12890000
opls_700-52    C    0.74931008    0.53936027    0.95736089    0.03720000
opls_145-53    C    0.66927006    0.52828982    0.08628030    -0.14060000
opls_700-54    C    0.63933994    0.44823010    0.19595936    0.06910000
opls_145-55    C    0.69735976    0.37878026    0.17450935    -0.09790000
opls_700-56    C    0.77800013    0.38686996    0.04044101    0.05770000
opls_145-57    C    0.80229973    0.46778985    0.93546987    -0.12790000
opls_700-58    C    0.54916968    0.43758973    0.26419072    0.06590000
opls_145-59    C    0.49581983    0.50956991    0.29520896    -0.09580000
opls_700-60    C    0.41213011    0.51121022    0.18564073    0.05760000
opls_145-61    C    0.37654025    0.43248015    0.09526899    -0.09810000
opls_700-62    C    0.42207992    0.35506003    0.11369891    0.05410000
opls_145-63    C    0.50751985    0.35940029    0.20132071    -0.09140000
opls_142-64    C    0.37105012    0.59472969    0.18097899    0.02840000
opls_142-65    C    0.77260975    0.62407979    0.85498961    0.07210000
opls_142-66    C    0.83909027    0.31801029    0.00235050    0.07660000
opls_142-67    C    0.39022997    0.26978019    0.04580005    0.07430000
opls_750-68    N    0.85055968    0.63778985    0.77141076    -0.29790000
opls_750-69    N    0.31068992    0.61176990    0.98407065    -0.29560000
opls_750-70    N    0.31053999    0.25723969    0.97984992    -0.29250000
opls_750-71    N    0.81568007    0.23958008    0.04535904    -0.29760000
