#======================================================================
# Crystal Data Generated By AuToFF
#----------------------------------------------------------------------

data_AuToFF_phase_1

_cell_length_a                         22.8295
_cell_length_b                         31.5709
_cell_length_c                         4.2707
_cell_angle_alpha                      90.00
_cell_angle_beta                       90.00
_cell_angle_gamma                      90.00
_symmetry_space_group_name_H-M_alt     'P 1'
_symmetry_space_group_IT_number        1

loop_
_space_group_symop_operation_xyz
   'x, y, z'

loop_
   _atom_site_label
   _atom_site_type_symbol
   _atom_site_fract_x
   _atom_site_fract_y
   _atom_site_fract_z
   _atom_site_charge
opls_750-0    N    0.25099980    0.84587009    0.53464069    -0.31160000
opls_750-1    N    0.75099980    0.34587009    0.53464069    -0.31160000
opls_750-2    N    0.74900020    0.15412991    0.53464069    -0.31160000
opls_750-3    N    0.24900020    0.65412991    0.53464069    -0.31160000
opls_750-4    N    0.74900020    0.84587009    0.46535931    -0.31160000
opls_750-5    N    0.24900020    0.34587009    0.46535931    -0.31160000
opls_750-6    N    0.25099980    0.15412991    0.46535931    -0.31160000
opls_750-7    N    0.75099980    0.65412991    0.46535931    -0.31160000
opls_239-8    N    0.62520993    0.00000000    0.50000000    -0.15870000
opls_239-9    N    0.12520993    0.50000000    0.50000000    -0.15870000
opls_239-10    N    0.37479007    0.00000000    0.50000000    -0.15870000
opls_239-11    N    0.87479007    0.50000000    0.50000000    -0.15870000
opls_700-12    C    0.18056988    0.80147002    0.77645117    0.05760000
opls_145-13    C    0.08872993    0.77202994    0.93273000    -0.17740000
opls_145-14    C    0.14806019    0.73582001    0.54721943    -0.08810000
opls_700-15    C    0.04712981    0.71359005    0.62781980    0.08690000
opls_145-16    C    0.46988984    0.96265992    0.49539888    -0.19020000
opls_145-17    C    0.74114019    0.92089994    0.33944084    -0.17940000
opls_916-18    C    0.65821985    0.96116994    0.51770904    0.16870000
opls_145-19    C    0.67242997    0.88917009    0.70039104    -0.16870000
opls_142-20    C    0.22049016    0.83669012    0.78102887    0.11480000
opls_145-21    C    0.13100988    0.80299010    0.96506896    -0.17880000
opls_700-22    C    0.09728991    0.73806987    0.72718992    0.08770000
opls_145-23    C    0.18725990    0.76922007    0.55793898    -0.17710000
opls_145-24    C    0.04778992    0.66967999    0.62508956    -0.13540000
opls_145-25    C    0.71995006    0.88530007    0.49697942    0.19180000
opls_145-26    C    0.70939004    0.95764011    0.34137963    -0.20720000
opls_145-27    C    0.64276003    0.92778001    0.72001077    -0.17590000
opls_700-28    C    0.68056988    0.30147002    0.77645117    0.05760000
opls_145-29    C    0.58872993    0.27202994    0.93273000    -0.17740000
opls_145-30    C    0.64806019    0.23582001    0.54721943    -0.08810000
opls_700-31    C    0.54712981    0.21359005    0.62781980    0.08690000
opls_145-32    C    0.96988984    0.46265992    0.49539888    -0.19020000
opls_145-33    C    0.24114019    0.42089994    0.33944084    -0.17940000
opls_916-34    C    0.15821985    0.46116994    0.51770904    0.16870000
opls_145-35    C    0.17242997    0.38917009    0.70039104    -0.16870000
opls_142-36    C    0.72049016    0.33669012    0.78102887    0.11480000
opls_145-37    C    0.63100988    0.30299010    0.96506896    -0.17880000
opls_700-38    C    0.59728991    0.23806987    0.72718992    0.08770000
opls_145-39    C    0.68725990    0.26922007    0.55793898    -0.17710000
opls_145-40    C    0.54778992    0.16967999    0.62508956    -0.13540000
opls_145-41    C    0.21995006    0.38530007    0.49697942    0.19180000
opls_145-42    C    0.20939004    0.45764011    0.34137963    -0.20720000
opls_145-43    C    0.14276003    0.42778001    0.72001077    -0.17590000
opls_700-44    C    0.81943012    0.19852998    0.77645117    0.05760000
opls_145-45    C    0.91127007    0.22797006    0.93273000    -0.17740000
opls_145-46    C    0.85193981    0.26417999    0.54721943    -0.08810000
opls_700-47    C    0.95287019    0.28640995    0.62781980    0.08690000
opls_145-48    C    0.53011016    0.03734008    0.49539888    -0.19020000
opls_145-49    C    0.25885981    0.07910006    0.33944084    -0.17940000
opls_916-50    C    0.34178015    0.03883006    0.51770904    0.16870000
opls_145-51    C    0.32757003    0.11082991    0.70039104    -0.16870000
opls_142-52    C    0.77950984    0.16330988    0.78102887    0.11480000
opls_145-53    C    0.86899012    0.19700990    0.96506896    -0.17880000
opls_700-54    C    0.90271009    0.26193013    0.72718992    0.08770000
opls_145-55    C    0.81274010    0.23077993    0.55793898    -0.17710000
opls_145-56    C    0.95221008    0.33032001    0.62508956    -0.13540000
opls_145-57    C    0.28004994    0.11469993    0.49697942    0.19180000
opls_145-58    C    0.29060996    0.04235989    0.34137963    -0.20720000
opls_145-59    C    0.35723997    0.07221999    0.72001077    -0.17590000
opls_700-60    C    0.31943012    0.69852998    0.77645117    0.05760000
opls_145-61    C    0.41127007    0.72797006    0.93273000    -0.17740000
opls_145-62    C    0.35193981    0.76417999    0.54721943    -0.08810000
opls_700-63    C    0.45287019    0.78640995    0.62781980    0.08690000
opls_145-64    C    0.03011016    0.53734008    0.49539888    -0.19020000
opls_145-65    C    0.75885981    0.57910006    0.33944084    -0.17940000
opls_916-66    C    0.84178015    0.53883006    0.51770904    0.16870000
opls_145-67    C    0.82757003    0.61082991    0.70039104    -0.16870000
opls_142-68    C    0.27950984    0.66330988    0.78102887    0.11480000
opls_145-69    C    0.36899012    0.69700990    0.96506896    -0.17880000
opls_700-70    C    0.40271009    0.76193013    0.72718992    0.08770000
opls_145-71    C    0.31274010    0.73077993    0.55793898    -0.17710000
opls_145-72    C    0.45221008    0.83032001    0.62508956    -0.13540000
opls_145-73    C    0.78004994    0.61469993    0.49697942    0.19180000
opls_145-74    C    0.79060996    0.54235989    0.34137963    -0.20720000
opls_145-75    C    0.85723997    0.57221999    0.72001077    -0.17590000
opls_700-76    C    0.81943012    0.80147002    0.22354883    0.05760000
opls_145-77    C    0.91127007    0.77202994    0.06727000    -0.17740000
opls_145-78    C    0.85193981    0.73582001    0.45278057    -0.08810000
opls_700-79    C    0.95287019    0.71359005    0.37218020    0.08690000
opls_145-80    C    0.53011016    0.96265992    0.50460112    -0.19020000
opls_145-81    C    0.25885981    0.92089994    0.66055916    -0.17940000
opls_916-82    C    0.34178015    0.96116994    0.48229096    0.16870000
opls_145-83    C    0.32757003    0.88917009    0.29960896    -0.16870000
opls_142-84    C    0.77950984    0.83669012    0.21897113    0.11480000
opls_145-85    C    0.86899012    0.80299010    0.03493104    -0.17880000
opls_700-86    C    0.90271009    0.73806987    0.27281008    0.08770000
opls_145-87    C    0.81274010    0.76922007    0.44206102    -0.17710000
opls_145-88    C    0.95221008    0.66967999    0.37491044    -0.13540000
opls_145-89    C    0.28004994    0.88530007    0.50302058    0.19180000
opls_145-90    C    0.29060996    0.95764011    0.65862037    -0.20720000
opls_145-91    C    0.35723997    0.92778001    0.27998923    -0.17590000
opls_700-92    C    0.31943012    0.30147002    0.22354883    0.05760000
opls_145-93    C    0.41127007    0.27202994    0.06727000    -0.17740000
opls_145-94    C    0.35193981    0.23582001    0.45278057    -0.08810000
opls_700-95    C    0.45287019    0.21359005    0.37218020    0.08690000
opls_145-96    C    0.03011016    0.46265992    0.50460112    -0.19020000
opls_145-97    C    0.75885981    0.42089994    0.66055916    -0.17940000
opls_916-98    C    0.84178015    0.46116994    0.48229096    0.16870000
opls_145-99    C    0.82757003    0.38917009    0.29960896    -0.16870000
opls_142-100    C    0.27950984    0.33669012    0.21897113    0.11480000
opls_145-101    C    0.36899012    0.30299010    0.03493104    -0.17880000
opls_700-102    C    0.40271009    0.23806987    0.27281008    0.08770000
opls_145-103    C    0.31274010    0.26922007    0.44206102    -0.17710000
opls_145-104    C    0.45221008    0.16967999    0.37491044    -0.13540000
opls_145-105    C    0.78004994    0.38530007    0.50302058    0.19180000
opls_145-106    C    0.79060996    0.45764011    0.65862037    -0.20720000
opls_145-107    C    0.85723997    0.42778001    0.27998923    -0.17590000
opls_700-108    C    0.18056988    0.19852998    0.22354883    0.05760000
opls_145-109    C    0.08872993    0.22797006    0.06727000    -0.17740000
opls_145-110    C    0.14806019    0.26417999    0.45278057    -0.08810000
opls_700-111    C    0.04712981    0.28640995    0.37218020    0.08690000
opls_145-112    C    0.46988984    0.03734008    0.50460112    -0.19020000
opls_145-113    C    0.74114019    0.07910006    0.66055916    -0.17940000
opls_916-114    C    0.65821985    0.03883006    0.48229096    0.16870000
opls_145-115    C    0.67242997    0.11082991    0.29960896    -0.16870000
opls_142-116    C    0.22049016    0.16330988    0.21897113    0.11480000
opls_145-117    C    0.13100988    0.19700990    0.03493104    -0.17880000
opls_700-118    C    0.09728991    0.26193013    0.27281008    0.08770000
opls_145-119    C    0.18725990    0.23077993    0.44206102    -0.17710000
opls_145-120    C    0.04778992    0.33032001    0.37491044    -0.13540000
opls_145-121    C    0.71995006    0.11469993    0.50302058    0.19180000
opls_145-122    C    0.70939004    0.04235989    0.65862037    -0.20720000
opls_145-123    C    0.64276003    0.07221999    0.27998923    -0.17590000
opls_700-124    C    0.68056988    0.69852998    0.22354883    0.05760000
opls_145-125    C    0.58872993    0.72797006    0.06727000    -0.17740000
opls_145-126    C    0.64806019    0.76417999    0.45278057    -0.08810000
opls_700-127    C    0.54712981    0.78640995    0.37218020    0.08690000
opls_145-128    C    0.96988984    0.53734008    0.50460112    -0.19020000
opls_145-129    C    0.24114019    0.57910006    0.66055916    -0.17940000
opls_916-130    C    0.15821985    0.53883006    0.48229096    0.16870000
opls_145-131    C    0.17242997    0.61082991    0.29960896    -0.16870000
opls_142-132    C    0.72049016    0.66330988    0.21897113    0.11480000
opls_145-133    C    0.63100988    0.69700990    0.03493104    -0.17880000
opls_700-134    C    0.59728991    0.76193013    0.27281008    0.08770000
opls_145-135    C    0.68725990    0.73077993    0.44206102    -0.17710000
opls_145-136    C    0.54778992    0.83032001    0.37491044    -0.13540000
opls_145-137    C    0.21995006    0.61469993    0.50302058    0.19180000
opls_145-138    C    0.20939004    0.54235989    0.65862037    -0.20720000
opls_145-139    C    0.14276003    0.57221999    0.27998923    -0.17590000
opls_145-140    C    1.00000000    0.73529991    0.50000000    -0.10220000
opls_145-141    C    1.00000000    0.64843004    0.50000000    -0.14410000
opls_145-142    C    0.50000000    0.23529991    0.50000000    -0.10220000
opls_145-143    C    0.50000000    0.14843004    0.50000000    -0.14410000
opls_145-144    C    0.00000000    0.26470009    0.50000000    -0.10220000
opls_145-145    C    1.00000000    0.35156996    0.50000000    -0.14410000
opls_145-146    C    0.50000000    0.76470009    0.50000000    -0.10220000
opls_145-147    C    0.50000000    0.85156996    0.50000000    -0.14410000
opls_916-148    C    0.56188002    0.00000000    0.50000000    0.13800000
opls_916-149    C    0.06188002    0.50000000    0.50000000    0.13800000
opls_916-150    C    0.43811998    0.00000000    0.50000000    0.13800000
opls_916-151    C    0.93811998    0.50000000    0.50000000    0.13800000
opls_146-152    H    0.12360980    0.82919999    0.12423959    0.11170000
opls_146-153    H    0.15287019    0.71189006    0.36709907    0.11390000
opls_146-154    H    0.08474999    0.65223006    0.71805091    0.10830000
opls_146-155    H    0.78169999    0.92044984    0.20919990    0.11200000
opls_146-156    H    0.60699008    0.93130003    0.88406116    0.11550000
opls_144-157    H    0.21862021    0.85752006    0.98089072    0.09550000
opls_146-158    H    0.04796995    0.77619010    0.05171986    0.23610000
opls_146-159    H    0.21877001    0.77307014    0.37358044    0.09280000
opls_146-160    H    0.44497996    0.93140012    0.48367949    0.03970000
opls_146-161    H    0.72581003    0.98390987    0.21085068    0.10530000
opls_146-162    H    0.65886988    0.86249014    0.84182921    0.11220000
opls_146-163    H    0.62360980    0.32919999    0.12423959    0.11170000
opls_146-164    H    0.65287019    0.21189006    0.36709907    0.11390000
opls_146-165    H    0.58474999    0.15223006    0.71805091    0.10830000
opls_146-166    H    0.28169999    0.42044984    0.20919990    0.11200000
opls_146-167    H    0.10699008    0.43130003    0.88406116    0.11550000
opls_144-168    H    0.71862021    0.35752006    0.98089072    0.09550000
opls_146-169    H    0.54796995    0.27619010    0.05171986    0.23610000
opls_146-170    H    0.71877001    0.27307014    0.37358044    0.09280000
opls_146-171    H    0.94497996    0.43140012    0.48367949    0.03970000
opls_146-172    H    0.22581003    0.48390987    0.21085068    0.10530000
opls_146-173    H    0.15886988    0.36249014    0.84182921    0.11220000
opls_146-174    H    0.87639020    0.17080001    0.12423959    0.11170000
opls_146-175    H    0.84712981    0.28810994    0.36709907    0.11390000
opls_146-176    H    0.91525001    0.34776994    0.71805091    0.10830000
opls_146-177    H    0.21830001    0.07955016    0.20919990    0.11200000
opls_146-178    H    0.39300992    0.06869997    0.88406116    0.11550000
opls_144-179    H    0.78137979    0.14247994    0.98089072    0.09550000
opls_146-180    H    0.95203005    0.22380990    0.05171986    0.23610000
opls_146-181    H    0.78122999    0.22692986    0.37358044    0.09280000
opls_146-182    H    0.55502004    0.06859988    0.48367949    0.03970000
opls_146-183    H    0.27418997    0.01609013    0.21085068    0.10530000
opls_146-184    H    0.34113012    0.13750986    0.84182921    0.11220000
opls_146-185    H    0.37639020    0.67080001    0.12423959    0.11170000
opls_146-186    H    0.34712981    0.78810994    0.36709907    0.11390000
opls_146-187    H    0.41525001    0.84776994    0.71805091    0.10830000
opls_146-188    H    0.71830001    0.57955016    0.20919990    0.11200000
opls_146-189    H    0.89300992    0.56869997    0.88406116    0.11550000
opls_144-190    H    0.28137979    0.64247994    0.98089072    0.09550000
opls_146-191    H    0.45203005    0.72380990    0.05171986    0.23610000
opls_146-192    H    0.28122999    0.72692986    0.37358044    0.09280000
opls_146-193    H    0.05502004    0.56859988    0.48367949    0.03970000
opls_146-194    H    0.77418997    0.51609013    0.21085068    0.10530000
opls_146-195    H    0.84113012    0.63750986    0.84182921    0.11220000
opls_146-196    H    0.87639020    0.82919999    0.87576041    0.11170000
opls_146-197    H    0.84712981    0.71189006    0.63290093    0.11390000
opls_146-198    H    0.91525001    0.65223006    0.28194909    0.10830000
opls_146-199    H    0.21830001    0.92044984    0.79080010    0.11200000
opls_146-200    H    0.39300992    0.93130003    0.11593884    0.11550000
opls_144-201    H    0.78137979    0.85752006    0.01910928    0.09550000
opls_146-202    H    0.95203005    0.77619010    0.94828014    0.23610000
opls_146-203    H    0.78122999    0.77307014    0.62641956    0.09280000
opls_146-204    H    0.55502004    0.93140012    0.51632051    0.03970000
opls_146-205    H    0.27418997    0.98390987    0.78914932    0.10530000
opls_146-206    H    0.34113012    0.86249014    0.15817079    0.11220000
opls_146-207    H    0.37639020    0.32919999    0.87576041    0.11170000
opls_146-208    H    0.34712981    0.21189006    0.63290093    0.11390000
opls_146-209    H    0.41525001    0.15223006    0.28194909    0.10830000
opls_146-210    H    0.71830001    0.42044984    0.79080010    0.11200000
opls_146-211    H    0.89300992    0.43130003    0.11593884    0.11550000
opls_144-212    H    0.28137979    0.35752006    0.01910928    0.09550000
opls_146-213    H    0.45203005    0.27619010    0.94828014    0.23610000
opls_146-214    H    0.28122999    0.27307014    0.62641956    0.09280000
opls_146-215    H    0.05502004    0.43140012    0.51632051    0.03970000
opls_146-216    H    0.77418997    0.48390987    0.78914932    0.10530000
opls_146-217    H    0.84113012    0.36249014    0.15817079    0.11220000
opls_146-218    H    0.12360980    0.17080001    0.87576041    0.11170000
opls_146-219    H    0.15287019    0.28810994    0.63290093    0.11390000
opls_146-220    H    0.08474999    0.34776994    0.28194909    0.10830000
opls_146-221    H    0.78169999    0.07955016    0.79080010    0.11200000
opls_146-222    H    0.60699008    0.06869997    0.11593884    0.11550000
opls_144-223    H    0.21862021    0.14247994    0.01910928    0.09550000
opls_146-224    H    0.04796995    0.22380990    0.94828014    0.23610000
opls_146-225    H    0.21877001    0.22692986    0.62641956    0.09280000
opls_146-226    H    0.44497996    0.06859988    0.51632051    0.03970000
opls_146-227    H    0.72581003    0.01609013    0.78914932    0.10530000
opls_146-228    H    0.65886988    0.13750986    0.15817079    0.11220000
opls_146-229    H    0.62360980    0.67080001    0.87576041    0.11170000
opls_146-230    H    0.65287019    0.78810994    0.63290093    0.11390000
opls_146-231    H    0.58474999    0.84776994    0.28194909    0.10830000
opls_146-232    H    0.28169999    0.57955016    0.79080010    0.11200000
opls_146-233    H    0.10699008    0.56869997    0.11593884    0.11550000
opls_144-234    H    0.71862021    0.64247994    0.01910928    0.09550000
opls_146-235    H    0.54796995    0.72380990    0.94828014    0.23610000
opls_146-236    H    0.71877001    0.72692986    0.62641956    0.09280000
opls_146-237    H    0.94497996    0.56859988    0.51632051    0.03970000
opls_146-238    H    0.22581003    0.51609013    0.78914932    0.10530000
opls_146-239    H    0.15886988    0.63750986    0.15817079    0.11220000
opls_146-240    H    1.00000000    0.76962012    0.50000000    0.11010000
opls_146-241    H    1.00000000    0.61576008    0.50000000    0.23550000
opls_146-242    H    0.50000000    0.26962012    0.50000000    0.11010000
opls_146-243    H    0.50000000    0.11576008    0.50000000    0.23550000
opls_146-244    H    0.00000000    0.23037988    0.50000000    0.11010000
opls_146-245    H    1.00000000    0.38423992    0.50000000    0.23550000
opls_146-246    H    0.50000000    0.73037988    0.50000000    0.11010000
opls_146-247    H    0.50000000    0.88423992    0.50000000    0.23550000
