#======================================================================
# Crystal Data Generated By AuToFF
#----------------------------------------------------------------------

data_AuToFF_phase_1

_cell_length_a                         38.9279
_cell_length_b                         38.9279
_cell_length_c                         15.0000
_cell_angle_alpha                      90.00
_cell_angle_beta                       90.00
_cell_angle_gamma                      120.00
_symmetry_space_group_name_H-M_alt     'P 1'
_symmetry_space_group_IT_number        1

loop_
_space_group_symop_operation_xyz
   'x, y, z'

loop_
   _atom_site_label
   _atom_site_type_symbol
   _atom_site_fract_x
   _atom_site_fract_y
   _atom_site_fract_z
   _atom_site_charge
opls_145-0    C    0.46621987    0.04267995    0.10362000    -0.13780000
opls_145-1    C    0.45081994    0.06885003    0.09843000    -0.17630000
opls_145-2    C    0.44549003    0.38245994    0.25618000    -0.18330000
opls_145-3    C    0.46227007    0.42408005    0.24754000    -0.13600000
opls_700-4    C    0.49025992    0.51074007    0.17447000    -0.05470000
opls_145-5    C    0.50054005    0.92605988    0.23781000    -0.12710000
opls_145-6    C    0.51605013    0.90000015    0.23297000    -0.17920000
opls_145-7    C    0.52097990    0.61897988    0.12485000    -0.18210000
opls_145-8    C    0.50427007    0.57733989    0.11633000    -0.13250000
opls_700-9    C    0.49085006    0.04520008    0.17296000    0.06730000
opls_234-10    C    0.43640001    0.14382003    0.21790000    0.44460000
opls_700-11    C    0.43245017    0.17977014    0.20277000    -0.04540000
opls_145-12    C    0.44862985    0.21135986    0.26283000    -0.12940000
opls_145-13    C    0.44824010    0.24700000    0.24652000    -0.12940000
opls_700-14    C    0.43073013    0.25149002    0.17045000    -0.06760000
opls_145-15    C    0.41344007    0.21921006    0.11160000    -0.13250000
opls_145-16    C    0.41440004    0.18377993    0.12742000    -0.13190000
opls_234-17    C    0.43288006    0.29037999    0.14896000    0.44770000
opls_916-18    C    0.45373005    0.36046013    0.19521000    0.17380000
opls_700-19    C    0.48773997    0.44455996    0.17801000    0.06100000
opls_916-20    C    0.45940986    0.09766986    0.16306000    0.17240000
opls_145-21    C    0.95732006    0.42353990    0.10362000    -0.13780000
opls_145-22    C    0.93114998    0.38196992    0.09843000    -0.17630000
opls_145-23    C    0.61753990    0.06302994    0.25618000    -0.18330000
opls_145-24    C    0.57592002    0.03818993    0.24754000    -0.13600000
opls_700-25    C    0.95480004    0.44565006    0.17296000    0.06730000
opls_234-26    C    0.85618011    0.29258006    0.21790000    0.44460000
opls_700-27    C    0.82023003    0.25268009    0.20277000    -0.04540000
opls_145-28    C    0.78864011    0.23727010    0.26283000    -0.12940000
opls_145-29    C    0.75299986    0.20123989    0.24652000    -0.12940000
opls_700-30    C    0.74850993    0.17924008    0.17045000    -0.06760000
opls_145-31    C    0.78078997    0.19423004    0.11160000    -0.13250000
opls_145-32    C    0.81621991    0.23062005    0.12742000    -0.13190000
opls_234-33    C    0.70961993    0.14250005    0.14896000    0.44770000
opls_916-34    C    0.63954010    0.09327001    0.19521000    0.17380000
opls_700-35    C    0.55544005    0.04318006    0.17801000    0.06100000
opls_916-36    C    0.90232996    0.36174006    0.16306000    0.17240000
opls_145-37    C    0.57646007    0.53378015    0.10362000    -0.13780000
opls_145-38    C    0.61803008    0.54918005    0.09843000    -0.17630000
opls_145-39    C    0.93697007    0.55451012    0.25618000    -0.18330000
opls_145-40    C    0.96180991    0.53773001    0.24754000    -0.13600000
opls_700-41    C    0.55434990    0.50914986    0.17296000    0.06730000
opls_234-42    C    0.70741988    0.56359991    0.21790000    0.44460000
opls_700-43    C    0.74731995    0.56755007    0.20277000    -0.04540000
opls_145-44    C    0.76273004    0.55137004    0.26283000    -0.12940000
opls_145-45    C    0.79876004    0.55176010    0.24652000    -0.12940000
opls_700-46    C    0.82075994    0.56926990    0.17045000    -0.06760000
opls_145-47    C    0.80576996    0.58655990    0.11160000    -0.13250000
opls_145-48    C    0.76938005    0.58560002    0.12742000    -0.13190000
opls_234-49    C    0.85750001    0.56711996    0.14896000    0.44770000
opls_916-50    C    0.90672986    0.54626986    0.19521000    0.17380000
opls_700-51    C    0.95681998    0.51225997    0.17801000    0.06100000
opls_916-52    C    0.63825992    0.54059008    0.16306000    0.17240000
opls_145-53    C    0.53378013    0.95732005    0.10362000    -0.13780000
opls_145-54    C    0.54918006    0.93114997    0.09843000    -0.17630000
opls_145-55    C    0.55450997    0.61754006    0.25618000    -0.18330000
opls_145-56    C    0.53772993    0.57591995    0.24754000    -0.13600000
opls_700-57    C    0.50974008    0.48925993    0.17447000    -0.05470000
opls_145-58    C    0.49945995    0.07394012    0.23781000    -0.12710000
opls_145-59    C    0.48395002    0.10000015    0.23297000    -0.17920000
opls_145-60    C    0.47902010    0.38102012    0.12485000    -0.18210000
opls_145-61    C    0.49572993    0.42266011    0.11633000    -0.13250000
opls_700-62    C    0.50914994    0.95479992    0.17296000    0.06730000
opls_234-63    C    0.56359999    0.85617997    0.21790000    0.44460000
opls_700-64    C    0.56754997    0.82023015    0.20277000    -0.04540000
opls_145-65    C    0.55137015    0.78864014    0.26283000    -0.12940000
opls_145-66    C    0.55175990    0.75300000    0.24652000    -0.12940000
opls_700-67    C    0.56926987    0.74850998    0.17045000    -0.06760000
opls_145-68    C    0.58655993    0.78078994    0.11160000    -0.13250000
opls_145-69    C    0.58559996    0.81622007    0.12742000    -0.13190000
opls_234-70    C    0.56711994    0.70962001    0.14896000    0.44770000
opls_916-71    C    0.54626995    0.63953987    0.19521000    0.17380000
opls_700-72    C    0.51226003    0.55544004    0.17801000    0.06100000
opls_916-73    C    0.54059014    0.90233014    0.16306000    0.17240000
opls_145-74    C    0.04267994    0.57646010    0.10362000    -0.13780000
opls_145-75    C    0.06885002    0.61803008    0.09843000    -0.17630000
opls_145-76    C    0.38246010    0.93697006    0.25618000    -0.18330000
opls_145-77    C    0.42407998    0.96181007    0.24754000    -0.13600000
opls_700-78    C    0.04519996    0.55434994    0.17296000    0.06730000
opls_234-79    C    0.14381989    0.70741994    0.21790000    0.44460000
opls_700-80    C    0.17976997    0.74731991    0.20277000    -0.04540000
opls_145-81    C    0.21135989    0.76272990    0.26283000    -0.12940000
opls_145-82    C    0.24700014    0.79876011    0.24652000    -0.12940000
opls_700-83    C    0.25149007    0.82075992    0.17045000    -0.06760000
opls_145-84    C    0.21921003    0.80576996    0.11160000    -0.13250000
opls_145-85    C    0.18378009    0.76937995    0.12742000    -0.13190000
opls_234-86    C    0.29038007    0.85749995    0.14896000    0.44770000
opls_916-87    C    0.36045990    0.90672999    0.19521000    0.17380000
opls_700-88    C    0.44455995    0.95681994    0.17801000    0.06100000
opls_916-89    C    0.09767004    0.63825994    0.16306000    0.17240000
opls_145-90    C    0.42354007    0.46622015    0.10362000    -0.13780000
opls_145-91    C    0.38196992    0.45081995    0.09843000    -0.17630000
opls_145-92    C    0.06302993    0.44548988    0.25618000    -0.18330000
opls_145-93    C    0.03819009    0.46226999    0.24754000    -0.13600000
opls_700-94    C    0.44565010    0.49085014    0.17296000    0.06730000
opls_234-95    C    0.29258012    0.43640009    0.21790000    0.44460000
opls_700-96    C    0.25268005    0.43244993    0.20277000    -0.04540000
opls_145-97    C    0.23726996    0.44862996    0.26283000    -0.12940000
opls_145-98    C    0.20123996    0.44823990    0.24652000    -0.12940000
opls_700-99    C    0.17924006    0.43073010    0.17045000    -0.06760000
opls_145-100    C    0.19423004    0.41344010    0.11160000    -0.13250000
opls_145-101    C    0.23061995    0.41439998    0.12742000    -0.13190000
opls_234-102    C    0.14249999    0.43288004    0.14896000    0.44770000
opls_916-103    C    0.09327014    0.45373014    0.19521000    0.17370000
opls_700-104    C    0.04318002    0.48774003    0.17801000    0.06100000
opls_916-105    C    0.36174008    0.45940992    0.16306000    0.17240000
opls_700-106    C    0.48926015    0.97952009    0.17447000    -0.05470000
opls_145-107    C    0.07394009    0.57448013    0.23781000    -0.12710000
opls_145-108    C    0.09999996    0.61605011    0.23297000    -0.17920000
opls_145-109    C    0.38102011    0.90200000    0.12485000    -0.18210000
opls_145-110    C    0.42266002    0.92692988    0.11633000    -0.13250000
opls_700-111    C    0.02048008    0.50974014    0.17447000    -0.05470000
opls_145-112    C    0.42552011    0.49945999    0.23781000    -0.12710000
opls_145-113    C    0.38395006    0.48395004    0.23297000    -0.17920000
opls_145-114    C    0.09799999    0.47902013    0.12485000    -0.18210000
opls_145-115    C    0.07307002    0.49572993    0.11633000    -0.13250000
opls_700-116    C    0.51073985    0.02047991    0.17447000    -0.05480000
opls_145-117    C    0.92605991    0.42551987    0.23781000    -0.12710000
opls_145-118    C    0.90000004    0.38394989    0.23297000    -0.17920000
opls_145-119    C    0.61897989    0.09800000    0.12485000    -0.18210000
opls_145-120    C    0.57733998    0.07307012    0.11633000    -0.13260000
opls_700-121    C    0.97951992    0.49025986    0.17447000    -0.05470000
opls_145-122    C    0.57447989    0.50054001    0.23781000    -0.12710000
opls_145-123    C    0.61604994    0.51604996    0.23297000    -0.17920000
opls_145-124    C    0.90200001    0.52097987    0.12485000    -0.18210000
opls_145-125    C    0.92692998    0.50427007    0.11633000    -0.13250000
opls_238-126    N    0.44685016    0.12703014    0.15160000    -0.44490000
opls_238-127    N    0.44016988    0.31858996    0.21166000    -0.44420000
opls_238-128    N    0.87297008    0.31982007    0.15160000    -0.44490000
opls_238-129    N    0.68140989    0.12157995    0.21166000    -0.44420000
opls_238-130    N    0.68018017    0.55315009    0.15160000    -0.44490000
opls_238-131    N    0.87841997    0.55983009    0.21166000    -0.44420000
opls_238-132    N    0.55314999    0.87297016    0.15160000    -0.44490000
opls_238-133    N    0.55983012    0.68141004    0.21166000    -0.44430000
opls_238-134    N    0.12702992    0.68017993    0.15160000    -0.44500000
opls_238-135    N    0.31859011    0.87842005    0.21166000    -0.44430000
opls_238-136    N    0.31981983    0.44684991    0.15160000    -0.44490000
opls_238-137    N    0.12158003    0.44016991    0.21166000    -0.44420000
opls_236-138    O    0.30133012    0.43109999    0.29050000    -0.40570000
opls_236-139    O    0.57221004    0.70299992    0.07437000    -0.40570000
opls_236-140    O    0.69866988    0.56890001    0.29050000    -0.40580000
opls_236-141    O    0.42778996    0.29700008    0.07437000    -0.40570000
opls_236-142    O    0.56889999    0.87022993    0.29050000    -0.40570000
opls_236-143    O    0.29700016    0.86921013    0.07437000    -0.40570000
opls_236-144    O    0.12977015    0.69867008    0.29050000    -0.40570000
opls_236-145    O    0.13079005    0.42778995    0.07437000    -0.40580000
opls_236-146    O    0.43110001    0.12977007    0.29050000    -0.40570000
opls_236-147    O    0.70299984    0.13078987    0.07437000    -0.40570000
opls_236-148    O    0.87022985    0.30132992    0.29050000    -0.40570000
opls_236-149    O    0.86920995    0.57221005    0.07437000    -0.40570000
opls_146-150    H    0.46008990    0.02134991    0.05238000    0.10100000
opls_146-151    H    0.43275000    0.06718003    0.04315000    0.22640000
opls_146-152    H    0.42691002    0.36745010    0.31188000    0.10100000
opls_146-153    H    0.45669010    0.44060001    0.29669000    0.08240000
opls_146-154    H    0.48106990    0.92324995    0.29125000    0.22490000
opls_146-155    H    0.50738998    0.87700011    0.28194000    0.08890000
opls_146-156    H    0.51248986    0.63453996    0.07860000    0.09930000
opls_146-157    H    0.48410998    0.56196995    0.06291000    0.22490000
opls_241-158    H    0.44803998    0.13750013    0.08889000    0.24360000
opls_146-159    H    0.46309996    0.20909009    0.32096000    0.22120000
opls_146-160    H    0.46305006    0.27133990    0.29245000    0.09090000
opls_146-161    H    0.39964012    0.22155013    0.05251000    0.22600000
opls_146-162    H    0.40111988    0.15959991    0.08058000    0.09300000
opls_241-163    H    0.43559013    0.30953013    0.27606000    0.25550000
opls_146-164    H    0.97865004    0.43873988    0.05238000    0.10100000
opls_146-165    H    0.93282011    0.36557009    0.04315000    0.22640000
opls_146-166    H    0.63255011    0.05946005    0.31188000    0.10100000
opls_146-167    H    0.55939987    0.01608985    0.29669000    0.08240000
opls_241-168    H    0.86250010    0.31054014    0.08889000    0.24370000
opls_146-169    H    0.79090999    0.25400986    0.32096000    0.22120000
opls_146-170    H    0.72865996    0.19170991    0.29245000    0.09090000
opls_146-171    H    0.77845006    0.17809006    0.05251000    0.22600000
opls_146-172    H    0.84039997    0.24152015    0.08058000    0.09300000
opls_241-173    H    0.69046990    0.12605988    0.27606000    0.25550000
opls_146-174    H    0.56125991    0.53990991    0.05238000    0.10100000
opls_146-175    H    0.63442989    0.56724988    0.04315000    0.22640000
opls_146-176    H    0.94054002    0.57309014    0.31188000    0.10100000
opls_146-177    H    0.98391003    0.54331013    0.29669000    0.08240000
opls_241-178    H    0.68946006    0.55196003    0.08889000    0.24360000
opls_146-179    H    0.74599004    0.53690006    0.32096000    0.22120000
opls_146-180    H    0.80828983    0.53694989    0.29245000    0.09090000
opls_146-181    H    0.82190997    0.60036010    0.05251000    0.22600000
opls_146-182    H    0.75847989    0.59887994    0.08058000    0.09300000
opls_241-183    H    0.87393997    0.56440999    0.27606000    0.25550000
opls_146-184    H    0.53991010    0.97865009    0.05238000    0.10100000
opls_146-185    H    0.56725000    0.93281997    0.04315000    0.22640000
opls_146-186    H    0.57308998    0.63254990    0.31188000    0.10100000
opls_146-187    H    0.54330990    0.55939999    0.29669000    0.08240000
opls_146-188    H    0.51893010    0.07675005    0.29125000    0.22490000
opls_146-189    H    0.49261002    0.12299989    0.28194000    0.08890000
opls_146-190    H    0.48751014    0.36546004    0.07860000    0.09930000
opls_146-191    H    0.51589002    0.43803005    0.06291000    0.22490000
opls_241-192    H    0.55196002    0.86249987    0.08889000    0.24370000
opls_146-193    H    0.53690004    0.79090991    0.32096000    0.22120000
opls_146-194    H    0.53694994    0.72866010    0.29245000    0.09090000
opls_146-195    H    0.60035988    0.77844987    0.05251000    0.22600000
opls_146-196    H    0.59888012    0.84040009    0.08058000    0.09300000
opls_241-197    H    0.56440987    0.69046987    0.27606000    0.25550000
opls_146-198    H    0.02134996    0.56126012    0.05238000    0.10100000
opls_146-199    H    0.06717989    0.63442991    0.04315000    0.22640000
opls_146-200    H    0.36744989    0.94053995    0.31188000    0.10100000
opls_146-201    H    0.44060013    0.98391015    0.29669000    0.08240000
opls_241-202    H    0.13749990    0.68945986    0.08889000    0.24370000
opls_146-203    H    0.20909001    0.74599014    0.32096000    0.22120000
opls_146-204    H    0.27134004    0.80829009    0.29245000    0.09090000
opls_146-205    H    0.22154994    0.82190994    0.05251000    0.22590000
opls_146-206    H    0.15960018    0.75848015    0.08058000    0.09300000
opls_241-207    H    0.30953010    0.87394012    0.27606000    0.25550000
opls_146-208    H    0.43874009    0.46009009    0.05238000    0.10100000
opls_146-209    H    0.36557011    0.43275012    0.04315000    0.22640000
opls_146-210    H    0.05945998    0.42690986    0.31188000    0.10100000
opls_146-211    H    0.01608997    0.45668987    0.29669000    0.08240000
opls_241-212    H    0.31053994    0.44803997    0.08889000    0.24370000
opls_146-213    H    0.25400996    0.46309994    0.32096000    0.22120000
opls_146-214    H    0.19171017    0.46305011    0.29245000    0.09090000
opls_146-215    H    0.17809003    0.39963990    0.05251000    0.22600000
opls_146-216    H    0.24152011    0.40112006    0.08058000    0.09300000
opls_241-217    H    0.12606003    0.43559001    0.27606000    0.25550000
opls_146-218    H    0.07675004    0.55781986    0.29125000    0.22490000
opls_146-219    H    0.12299988    0.63038987    0.28194000    0.08890000
opls_146-220    H    0.36546007    0.87794990    0.07860000    0.09930000
opls_146-221    H    0.43802996    0.92213997    0.06291000    0.22490000
opls_146-222    H    0.44217991    0.51892989    0.29125000    0.22490000
opls_146-223    H    0.36960989    0.49261002    0.28194000    0.08890000
opls_146-224    H    0.12205007    0.48751014    0.07860000    0.09920000
opls_146-225    H    0.07786006    0.51589008    0.06291000    0.22490000
opls_146-226    H    0.92324996    0.44218014    0.29125000    0.22490000
opls_146-227    H    0.87700012    0.36961013    0.28194000    0.08890000
opls_146-228    H    0.63453993    0.12205010    0.07860000    0.09930000
opls_146-229    H    0.56197004    0.07786003    0.06291000    0.22490000
opls_146-230    H    0.55782009    0.48107011    0.29125000    0.22490000
opls_146-231    H    0.63039011    0.50738998    0.28194000    0.08890000
opls_146-232    H    0.87794993    0.51248986    0.07860000    0.09930000
opls_146-233    H    0.92213994    0.48410992    0.06291000    0.22490000
