#======================================================================
# Crystal Data Generated By AuToFF
#----------------------------------------------------------------------

data_AuToFF_phase_1

_cell_length_a                         22.0200
_cell_length_b                         22.0200
_cell_length_c                         3.5000
_cell_angle_alpha                      90.00
_cell_angle_beta                       90.00
_cell_angle_gamma                      120.00
_symmetry_space_group_name_H-M_alt     'P 1'
_symmetry_space_group_IT_number        1

loop_
_space_group_symop_operation_xyz
   'x, y, z'

loop_
   _atom_site_label
   _atom_site_type_symbol
   _atom_site_fract_x
   _atom_site_fract_y
   _atom_site_fract_z
   _atom_site_charge
opls_238-0    N    0.40230027    0.86200018    0.75600000    -0.22070000
opls_238-1    N    0.54130024    0.14190021    0.27770000    -0.23660000
opls_238-2    N    0.13800024    0.54030020    0.75600000    -0.22070000
opls_238-3    N    0.85810009    0.39940000    0.27770000    -0.23660000
opls_238-4    N    0.45970021    0.59770014    0.75600000    -0.22070000
opls_238-5    N    0.60059967    0.45869979    0.27770000    -0.23660000
opls_142-6    C    0.42140003    0.81299987    0.80360000    0.11690000
opls_700-7    C    0.37739995    0.74170000    0.85780000    -0.15470000
opls_280-8    C    0.71140002    0.30160022    0.12930000    0.26280000
opls_916-9    C    0.50960000    0.07210009    0.39560000    0.19960000
opls_145-10    C    0.54700012    0.03700023    0.45940000    -0.19580000
opls_145-11    C    0.51270031    0.96790017    0.58000000    -0.16760000
opls_142-12    C    0.60780025    0.18700013    0.19370000    0.11820000
opls_700-13    C    0.63539977    0.25830000    0.13800000    -0.21920000
opls_280-14    C    0.30189986    0.71169981    0.86570000    0.32120000
opls_916-15    C    0.43999992    0.93189994    0.63930000    0.20110000
opls_145-16    C    0.40269984    0.96709995    0.57610000    -0.16200000
opls_145-17    C    0.43700010    0.03620002    0.45510000    -0.17230000
opls_142-18    C    0.18700005    0.60839974    0.80360000    0.11690000
opls_700-19    C    0.25829997    0.63569986    0.85780000    -0.15470000
opls_280-20    C    0.69840008    0.40980017    0.12930000    0.26280000
opls_916-21    C    0.92789980    0.43749987    0.39560000    0.19960000
opls_145-22    C    0.96300003    0.51000006    0.45940000    -0.19580000
opls_145-23    C    0.03209980    0.54479997    0.58000000    -0.16760000
opls_142-24    C    0.81300003    0.42080024    0.19370000    0.11820000
opls_700-25    C    0.74169982    0.37709991    0.13800000    -0.21920000
opls_280-26    C    0.28829974    0.59019983    0.86570000    0.32120000
opls_916-27    C    0.06810006    0.50810021    0.63930000    0.20110000
opls_145-28    C    0.03289992    0.43560001    0.57610000    -0.16200000
opls_145-29    C    0.96380015    0.40080011    0.45510000    -0.17230000
opls_142-30    C    0.39160011    0.57859987    0.80360000    0.11690000
opls_700-31    C    0.36430007    0.62260014    0.85780000    -0.15470000
opls_280-32    C    0.59020016    0.28860014    0.12930000    0.26280000
opls_916-33    C    0.56250020    0.49040004    0.39560000    0.19960000
opls_145-34    C    0.49000011    0.45300023    0.45940000    -0.19580000
opls_145-35    C    0.45519989    0.48729987    0.58000000    -0.16760000
opls_142-36    C    0.57919999    0.39220016    0.19370000    0.11820000
opls_700-37    C    0.62289996    0.36460009    0.13800000    -0.21920000
opls_280-38    C    0.40979969    0.69809983    0.86570000    0.32120000
opls_916-39    C    0.49190002    0.55999985    0.63930000    0.20110000
opls_145-40    C    0.56440024    0.59730004    0.57610000    -0.16200000
opls_145-41    C    0.59919975    0.56299987    0.45510000    -0.17240000
opls_281-42    O    0.74999996    0.27370020    0.12550000    -0.48330000
opls_281-43    O    0.27429983    0.75049974    0.86830000    -0.48450000
opls_281-44    O    0.72629976    0.47629980    0.12550000    -0.48330000
opls_281-45    O    0.24949983    0.52379984    0.86830000    -0.48450000
opls_281-46    O    0.52369982    0.25000000    0.12550000    -0.48330000
opls_281-47    O    0.47620009    0.72569990    0.86830000    -0.48450000
opls_910-48    H    0.34720029    0.83580023    0.79540000    0.26510000
opls_144-49    H    0.47740007    0.83219978    0.77520000    0.10260000
opls_146-50    H    0.60350006    0.06210002    0.43500000    0.11750000
opls_146-51    H    0.54309986    0.94190000    0.62850000    0.10550000
opls_910-52    H    0.51200002    0.16780022    0.23980000    0.26220000
opls_144-53    H    0.64449977    0.16759990    0.22320000    0.07320000
opls_146-54    H    0.34619986    0.93939972    0.62180000    0.10650000
opls_146-55    H    0.40810020    0.06250013    0.41750000    0.24720000
opls_910-56    H    0.16420009    0.51140018    0.79540000    0.26510000
opls_144-57    H    0.16779991    0.64520018    0.77520000    0.10260000
opls_146-58    H    0.93789974    0.54139984    0.43500000    0.11320000
opls_146-59    H    0.05809995    0.60119990    0.62850000    0.10550000
opls_910-60    H    0.83219984    0.34419986    0.23980000    0.26220000
opls_144-61    H    0.83240016    0.47690022    0.22320000    0.07320000
opls_146-62    H    0.06059989    0.40680015    0.62180000    0.10650000
opls_146-63    H    0.93749980    0.34559997    0.41750000    0.24720000
opls_910-64    H    0.48859988    0.65280012    0.79540000    0.26510000
opls_144-65    H    0.35480002    0.52260004    0.77520000    0.10260000
opls_146-66    H    0.45860020    0.39650014    0.43500000    0.11320000
opls_146-67    H    0.39880018    0.45690010    0.62850000    0.10550000
opls_910-68    H    0.65580014    0.48799992    0.23980000    0.26220000
opls_144-69    H    0.52310007    0.35549988    0.22320000    0.07320000
opls_146-70    H    0.59320025    0.65380013    0.62180000    0.10650000
opls_146-71    H    0.65439999    0.59189990    0.41750000    0.24720000
