#======================================================================
# Crystal Data Generated By AuToFF
#----------------------------------------------------------------------

data_AuToFF_phase_1

_cell_length_a                         41.0140
_cell_length_b                         41.0140
_cell_length_c                         3.4000
_cell_angle_alpha                      90.00
_cell_angle_beta                       90.00
_cell_angle_gamma                      120.00
_symmetry_space_group_name_H-M_alt     'P 1'
_symmetry_space_group_IT_number        1

loop_
_space_group_symop_operation_xyz
   'x, y, z'

loop_
   _atom_site_label
   _atom_site_type_symbol
   _atom_site_fract_x
   _atom_site_fract_y
   _atom_site_fract_z
   _atom_site_charge
opls_167-0    O    0.39114997    0.54845003    0.50000000    -0.33770000
opls_167-1    O    0.45154987    0.84269987    0.50000000    -0.33770000
opls_167-2    O    0.15730002    0.60884981    0.50000000    -0.33770000
opls_167-3    O    0.60885003    0.45154997    0.50000000    -0.33770000
opls_167-4    O    0.54844999    0.15729985    0.50000000    -0.33770000
opls_167-5    O    0.84269984    0.39114991    0.50000000    -0.33770000
opls_167-6    O    0.54845007    0.39114991    0.50000000    -0.33790000
opls_167-7    O    0.84269994    0.45154997    0.50000000    -0.33770000
opls_167-8    O    0.60884986    0.15729985    0.50000000    -0.33770000
opls_167-9    O    0.45154979    0.60884981    0.50000000    -0.33770000
opls_167-10    O    0.15730006    0.54845003    0.50000000    -0.33770000
opls_167-11    O    0.39115000    0.84269987    0.50000000    -0.33770000
opls_166-12    C    0.38704985    0.57919991    0.50000000    0.18260000
opls_166-13    C    0.42079995    0.80784996    0.50000000    0.18260000
opls_166-14    C    0.19214982    0.61294985    0.50000000    0.18260000
opls_166-15    C    0.61295015    0.42080009    0.50000000    0.18260000
opls_166-16    C    0.57920005    0.19215004    0.50000000    0.18260000
opls_166-17    C    0.80784999    0.38706000    0.50000000    0.18260000
opls_166-18    C    0.57920002    0.38706000    0.50000000    0.18260000
opls_166-19    C    0.80784994    0.42080009    0.50000000    0.18260000
opls_166-20    C    0.61294999    0.19215004    0.50000000    0.18260000
opls_166-21    C    0.42080003    0.61294985    0.50000000    0.18260000
opls_166-22    C    0.19215006    0.57919991    0.50000000    0.18260000
opls_166-23    C    0.38705001    0.80784996    0.50000000    0.18260000
opls_145-24    C    0.35311995    0.57761992    0.50000000    -0.21210000
opls_145-25    C    0.42237979    0.77549982    0.50000000    -0.21210000
opls_145-26    C    0.22449987    0.64687998    0.50000000    -0.21210000
opls_145-27    C    0.64688005    0.42238008    0.50000000    -0.21210000
opls_145-28    C    0.57762007    0.22449990    0.50000000    -0.21210000
opls_145-29    C    0.77550013    0.35312002    0.50000000    -0.21210000
opls_145-30    C    0.57761989    0.35312002    0.50000000    -0.21210000
opls_145-31    C    0.77550003    0.42238008    0.50000000    -0.21210000
opls_145-32    C    0.64687983    0.22449990    0.50000000    -0.21210000
opls_145-33    C    0.42238011    0.64687998    0.50000000    -0.21210000
opls_145-34    C    0.22449997    0.57761992    0.50000000    -0.21210000
opls_145-35    C    0.35312003    0.77549982    0.50000000    -0.21210000
opls_700-36    C    0.35402980    0.61167983    0.50000000    0.07120000
opls_700-37    C    0.38832004    0.74234984    0.50000000    0.07120000
opls_700-38    C    0.25765002    0.64597005    0.50000000    0.07120000
opls_700-39    C    0.64597006    0.38831988    0.50000000    0.07120000
opls_700-40    C    0.61167982    0.25764988    0.50000000    0.07120000
opls_700-41    C    0.74234998    0.35402995    0.50000000    0.07120000
opls_700-42    C    0.61167997    0.35402995    0.50000000    0.07120000
opls_700-43    C    0.74234983    0.38831988    0.50000000    0.07120000
opls_700-44    C    0.64597006    0.25764988    0.50000000    0.07120000
opls_700-45    C    0.38832003    0.64597005    0.50000000    0.07120000
opls_700-46    C    0.25765003    0.61167983    0.50000000    0.07120000
opls_700-47    C    0.35402980    0.74234984    0.50000000    0.07120000
opls_261-48    C    0.31981014    0.61103004    0.50000000    -0.02110000
opls_261-49    C    0.38896980    0.70877979    0.50000000    -0.02110000
opls_261-50    C    0.29121992    0.68018988    0.50000000    -0.02110000
opls_261-51    C    0.68018986    0.38896996    0.50000000    -0.02110000
opls_261-52    C    0.61103006    0.29121992    0.50000000    -0.02110000
opls_261-53    C    0.70877994    0.31980984    0.50000000    -0.02110000
opls_261-54    C    0.61102990    0.31980984    0.50000000    -0.02110000
opls_261-55    C    0.70878010    0.38896996    0.50000000    -0.02110000
opls_261-56    C    0.68018986    0.29121992    0.50000000    -0.02110000
opls_261-57    C    0.38896996    0.68018988    0.50000000    -0.02110000
opls_261-58    C    0.29121990    0.61103004    0.50000000    -0.02110000
opls_261-59    C    0.31981000    0.70877979    0.50000000    -0.02110000
opls_145-60    C    0.54777993    0.45222003    0.50000000    -0.24170000
opls_145-61    C    0.54778017    0.09555009    0.50000000    -0.24170000
opls_145-62    C    0.90445009    0.45222003    0.50000000    -0.24180000
opls_145-63    C    0.45222007    0.54777997    0.50000000    -0.24180000
opls_145-64    C    0.45221983    0.90444991    0.50000000    -0.24180000
opls_145-65    C    0.09554991    0.54777997    0.50000000    -0.24180000
opls_147-66    C    0.45058993    0.48928001    0.50000000    0.08100000
opls_147-67    C    0.51072005    0.96130991    0.50000000    0.08100000
opls_147-68    C    0.03868988    0.54940980    0.50000000    0.08110000
opls_147-69    C    0.54941007    0.51071999    0.50000000    0.08100000
opls_147-70    C    0.48927995    0.03869009    0.50000000    0.08100000
opls_147-71    C    0.96130998    0.45058992    0.50000000    0.08100000
opls_147-72    C    0.48927994    0.45058992    0.50000000    0.08100000
opls_147-73    C    0.96130991    0.51071999    0.50000000    0.08100000
opls_147-74    C    0.54941015    0.03869009    0.50000000    0.08100000
opls_147-75    C    0.51071992    0.54940980    0.50000000    0.08100000
opls_147-76    C    0.03869009    0.48928001    0.50000000    0.08100000
opls_147-77    C    0.45058985    0.96130991    0.50000000    0.08110000
opls_145-78    C    0.56838988    0.49122995    0.50000000    -0.15630000
opls_145-79    C    0.50876995    0.07716002    0.50000000    -0.15630000
opls_145-80    C    0.92283993    0.43161003    0.50000000    -0.15630000
opls_145-81    C    0.43161012    0.50877005    0.50000000    -0.15610000
opls_145-82    C    0.49123005    0.92283998    0.50000000    -0.15630000
opls_145-83    C    0.07716007    0.56838997    0.50000000    -0.15630000
opls_145-84    C    0.49122990    0.56838997    0.50000000    -0.15630000
opls_145-85    C    0.07715993    0.50877005    0.50000000    -0.15630000
opls_145-86    C    0.43160992    0.92283998    0.50000000    -0.15630000
opls_145-87    C    0.50877010    0.43161003    0.50000000    -0.15630000
opls_145-88    C    0.92284007    0.49122995    0.50000000    -0.15630000
opls_145-89    C    0.56839008    0.07716002    0.50000000    -0.15620000
opls_145-90    C    0.43052997    0.44997983    0.50000000    -0.13000000
opls_145-91    C    0.55001999    0.98053980    0.50000000    -0.13000000
opls_145-92    C    0.01945995    0.56946995    0.50000000    -0.13000000
opls_145-93    C    0.56947988    0.55001989    0.50000000    -0.13000000
opls_145-94    C    0.44997987    0.01945991    0.50000000    -0.13000000
opls_145-95    C    0.98053986    0.43051991    0.50000000    -0.13000000
opls_145-96    C    0.44998005    0.43051991    0.50000000    -0.12910000
opls_145-97    C    0.98054001    0.55001989    0.50000000    -0.12990000
opls_145-98    C    0.56948004    0.01945991    0.50000000    -0.13000000
opls_145-99    C    0.55001981    0.56947980    0.50000000    -0.13000000
opls_145-100    C    0.01945985    0.44997983    0.50000000    -0.13000000
opls_145-101    C    0.43052981    0.98053980    0.50000000    -0.13000000
opls_700-102    C    0.49034987    0.50964986    0.50000000    -0.00450000
opls_700-103    C    0.49035000    0.98070000    0.50000000    -0.00450000
opls_700-104    C    0.01929999    0.50964986    0.50000000    -0.00450000
opls_700-105    C    0.50964999    0.49034986    0.50000000    -0.00450000
opls_700-106    C    0.50965000    0.01930000    0.50000000    -0.00450000
opls_700-107    C    0.98069987    0.49034986    0.50000000    -0.00450000
MOF2_B_2-108    B    0.43170004    0.56829988    0.50000000    0.58990000
MOF2_B_2-109    B    0.43169979    0.86340982    0.50000000    0.58500000
MOF2_B_2-110    B    0.13658984    0.56829988    0.50000000    0.58490000
MOF2_B_2-111    B    0.56829982    0.43169984    0.50000000    0.58990000
MOF2_B_2-112    B    0.56830007    0.13658990    0.50000000    0.58490000
MOF2_B_2-113    B    0.86341002    0.43169984    0.50000000    0.58490000
opls_146-114    H    0.32718994    0.55080989    0.50000000    0.12330000
opls_146-115    H    0.44918986    0.77637991    0.50000000    0.12330000
opls_146-116    H    0.22362006    0.67280992    0.50000000    0.12330000
opls_146-117    H    0.67280992    0.44918983    0.50000000    0.12330000
opls_146-118    H    0.55081014    0.22362009    0.50000000    0.12330000
opls_146-119    H    0.77637994    0.32719008    0.50000000    0.12330000
opls_146-120    H    0.55081014    0.32719008    0.50000000    0.12330000
opls_146-121    H    0.77637992    0.44918983    0.50000000    0.12330000
opls_146-122    H    0.67280995    0.22362009    0.50000000    0.12330000
opls_146-123    H    0.44918986    0.67280992    0.50000000    0.12330000
opls_146-124    H    0.22361994    0.55080989    0.50000000    0.12330000
opls_146-125    H    0.32719005    0.77637991    0.50000000    0.12330000
opls_146-126    H    0.59904007    0.50613007    0.50000000    0.11030000
opls_146-127    H    0.49387008    0.09291011    0.50000000    0.11040000
opls_146-128    H    0.90707985    0.40095982    0.50000000    0.11030000
opls_146-129    H    0.40095993    0.49386993    0.50000000    0.11030000
opls_146-130    H    0.50613011    0.90708004    0.50000000    0.10910000
opls_146-131    H    0.09291001    0.59903990    0.50000000    0.11030000
opls_146-132    H    0.50612989    0.59903990    0.50000000    0.11030000
opls_146-133    H    0.09291000    0.49386993    0.50000000    0.11030000
opls_146-134    H    0.40095997    0.90708989    0.50000000    0.11030000
opls_146-135    H    0.49386997    0.40095982    0.50000000    0.11030000
opls_146-136    H    0.90708001    0.50613007    0.50000000    0.10910000
opls_146-137    H    0.59904003    0.09291011    0.50000000    0.11030000
opls_146-138    H    0.39999986    0.43444990    0.50000000    0.11640000
opls_146-139    H    0.56554984    0.96554987    0.50000000    0.11950000
opls_146-140    H    0.03444992    0.59999994    0.50000000    0.11640000
opls_146-141    H    0.60000000    0.56554981    0.50000000    0.11950000
opls_146-142    H    0.43445016    0.03445013    0.50000000    0.11950000
opls_146-143    H    0.96555008    0.40000006    0.50000000    0.11950000
opls_146-144    H    0.43444997    0.40000006    0.50000000    0.11950000
opls_146-145    H    0.96554981    0.56554981    0.50000000    0.11950000
opls_146-146    H    0.59999997    0.03445013    0.50000000    0.11950000
opls_146-147    H    0.56555003    0.59999994    0.50000000    0.11950000
opls_146-148    H    0.03445005    0.43444990    0.50000000    0.11950000
opls_146-149    H    0.40000003    0.96554987    0.50000000    0.11640000
