#======================================================================
# Crystal Data Generated By AuToFF
#----------------------------------------------------------------------

data_AuToFF_phase_1

_cell_length_a                         30.0680
_cell_length_b                         30.0680
_cell_length_c                         3.5538
_cell_angle_alpha                      90.00
_cell_angle_beta                       90.00
_cell_angle_gamma                      120.00
_symmetry_space_group_name_H-M_alt     'P 1'
_symmetry_space_group_IT_number        1

loop_
_space_group_symop_operation_xyz
   'x, y, z'

loop_
   _atom_site_label
   _atom_site_type_symbol
   _atom_site_fract_x
   _atom_site_fract_y
   _atom_site_fract_z
   _atom_site_charge
opls_280-0    C    0.31589012    0.70187003    0.50000000    0.30780000
opls_700-1    C    0.27917006    0.64871993    0.50000000    -0.17480000
opls_142-2    C    0.22604007    0.63299007    0.50000000    0.12200000
opls_145-3    C    0.10665992    0.50935016    0.50000000    -0.21110000
opls_700-4    C    0.05244006    0.48343008    0.50000000    0.02580000
opls_700-5    C    0.02721005    0.51261019    0.50000000    0.02540000
opls_700-6    C    0.05642004    0.56704986    0.50000000    0.01580000
opls_145-7    C    0.11056002    0.59143998    0.50000000    -0.21110000
opls_916-8    C    0.13622014    0.56311010    0.50000000    0.21960000
opls_280-9    C    0.02306986    0.42925001    0.50000000    0.15660000
opls_280-10    C    0.03092008    0.59576991    0.50000000    0.15660000
opls_280-11    C    0.29813021    0.61402016    0.50000000    0.30790000
opls_700-12    C    0.35127999    0.63045010    0.50000000    -0.17470000
opls_142-13    C    0.36701001    0.59305021    0.50000000    0.12200000
opls_145-14    C    0.49065008    0.59730987    0.50000000    -0.21110000
opls_700-15    C    0.51656996    0.56900995    0.50000000    0.02580000
opls_700-16    C    0.48739005    0.51459985    0.50000000    0.02540000
opls_700-17    C    0.43294987    0.48936986    0.50000000    0.01590000
opls_145-18    C    0.40855987    0.51911988    0.50000000    -0.21110000
opls_916-19    C    0.43688983    0.57310985    0.50000000    0.21960000
opls_280-20    C    0.57075006    0.59382019    0.50000000    0.15660000
opls_280-21    C    0.40422984    0.43514986    0.50000000    0.15660000
opls_280-22    C    0.38598020    0.68411019    0.50000000    0.30780000
opls_700-23    C    0.36954994    0.72082997    0.50000000    -0.17480000
opls_142-24    C    0.40695012    0.77396010    0.50000000    0.12200000
opls_145-25    C    0.40269000    0.89333996    0.50000000    -0.21110000
opls_700-26    C    0.43098998    0.94755997    0.50000000    0.02580000
opls_700-27    C    0.48539990    0.97278996    0.50000000    0.02540000
opls_700-28    C    0.51062991    0.94357989    0.50000000    0.01580000
opls_145-29    C    0.48088011    0.88944014    0.50000000    -0.21110000
opls_916-30    C    0.42689002    0.86378004    0.50000000    0.21960000
opls_280-31    C    0.40617994    0.97693018    0.50000000    0.15660000
opls_280-32    C    0.56485008    0.96908023    0.50000000    0.15660000
opls_280-33    C    0.68410988    0.29812997    0.50000000    0.30780000
opls_700-34    C    0.72082994    0.35128007    0.50000000    -0.17480000
opls_142-35    C    0.77395993    0.36700993    0.50000000    0.12200000
opls_145-36    C    0.89334028    0.49065022    0.50000000    -0.21110000
opls_700-37    C    0.94755994    0.51656992    0.50000000    0.02580000
opls_700-38    C    0.97279015    0.48739019    0.50000000    0.02540000
opls_700-39    C    0.94357996    0.43295014    0.50000000    0.01580000
opls_145-40    C    0.88943998    0.40856002    0.50000000    -0.21110000
opls_916-41    C    0.86377986    0.43688990    0.50000000    0.21960000
opls_280-42    C    0.97693014    0.57074999    0.50000000    0.15660000
opls_280-43    C    0.96907992    0.40423009    0.50000000    0.15660000
opls_280-44    C    0.70186979    0.38597984    0.50000000    0.30780000
opls_700-45    C    0.64872001    0.36954990    0.50000000    -0.17480000
opls_142-46    C    0.63299018    0.40695017    0.50000000    0.12200000
opls_145-47    C    0.50934992    0.40269013    0.50000000    -0.21110000
opls_700-48    C    0.48343004    0.43099005    0.50000000    0.02580000
opls_700-49    C    0.51260995    0.48540015    0.50000000    0.02540000
opls_700-50    C    0.56705013    0.51063014    0.50000000    0.01590000
opls_145-51    C    0.59144013    0.48088012    0.50000000    -0.21110000
opls_916-52    C    0.56311017    0.42689015    0.50000000    0.21960000
opls_280-53    C    0.42925013    0.40618019    0.50000000    0.15660000
opls_280-54    C    0.59577016    0.56485014    0.50000000    0.15660000
opls_280-55    C    0.61401999    0.31589019    0.50000000    0.30780000
opls_700-56    C    0.63045006    0.27917003    0.50000000    -0.17480000
opls_142-57    C    0.59304988    0.22603990    0.50000000    0.12200000
opls_145-58    C    0.59731000    0.10666004    0.50000000    -0.21110000
opls_700-59    C    0.56901002    0.05244003    0.50000000    0.02580000
opls_700-60    C    0.51460010    0.02721004    0.50000000    0.02540000
opls_700-61    C    0.48937009    0.05642011    0.50000000    0.01580000
opls_145-62    C    0.51911989    0.11055986    0.50000000    -0.21100000
opls_916-63    C    0.57310998    0.13621996    0.50000000    0.21960000
opls_280-64    C    0.59382006    0.02306982    0.50000000    0.15660000
opls_280-65    C    0.43515011    0.03092015    0.50000000    0.15660000
opls_281-66    O    0.29944995    0.73272989    0.50000000    -0.36730000
opls_281-67    O    0.04534987    0.40352002    0.50000000    -0.37790000
opls_281-68    O    0.05669020    0.64378016    0.50000000    -0.37800000
opls_281-69    O    0.26727013    0.56671998    0.50000000    -0.36740000
opls_281-70    O    0.59648008    0.64183006    0.50000000    -0.37800000
opls_281-71    O    0.35621983    0.41290993    0.50000000    -0.37800000
opls_281-72    O    0.43327992    0.70055012    0.50000000    -0.36740000
opls_281-73    O    0.35817005    0.95464993    0.50000000    -0.37790000
opls_281-74    O    0.58708997    0.94330991    0.50000000    -0.37780000
opls_281-75    O    0.70055005    0.26727011    0.50000000    -0.36740000
opls_281-76    O    0.95465013    0.59647998    0.50000000    -0.37790000
opls_281-77    O    0.94330980    0.35621984    0.50000000    -0.37800000
opls_281-78    O    0.73272987    0.43328002    0.50000000    -0.36730000
opls_281-79    O    0.40351992    0.35816994    0.50000000    -0.37800000
opls_281-80    O    0.64378017    0.58709007    0.50000000    -0.37800000
opls_281-81    O    0.56672008    0.29944988    0.50000000    -0.36730000
opls_281-82    O    0.64182995    0.04535007    0.50000000    -0.37800000
opls_281-83    O    0.41291003    0.05669009    0.50000000    -0.37800000
opls_238-84    N    0.18779015    0.58336998    0.50000000    -0.26520000
opls_238-85    N    0.41663007    0.60442018    0.50000000    -0.26520000
opls_238-86    N    0.39557997    0.81221023    0.50000000    -0.26510000
opls_238-87    N    0.81220985    0.41663002    0.50000000    -0.26520000
opls_238-88    N    0.58337012    0.39558020    0.50000000    -0.26520000
opls_238-89    N    0.60442022    0.18779016    0.50000000    -0.26520000
opls_144-90    H    0.21604985    0.66081994    0.50000000    0.12590000
opls_910-91    H    0.19981984    0.55893992    0.50000000    0.31090000
opls_146-92    H    0.12515999    0.48859989    0.50000000    0.25930000
opls_146-93    H    0.13142999    0.63046009    0.50000000    0.25970000
opls_144-94    H    0.33918022    0.55523020    0.50000000    0.12590000
opls_910-95    H    0.44105991    0.64087997    0.50000000    0.31090000
opls_146-96    H    0.51139994    0.63656002    0.50000000    0.25930000
opls_146-97    H    0.36954008    0.50096987    0.50000000    0.25960000
opls_144-98    H    0.44477012    0.78395025    0.50000000    0.12590000
opls_910-99    H    0.35911992    0.80018011    0.50000000    0.31090000
opls_146-100    H    0.36344007    0.87484010    0.50000000    0.25930000
opls_146-101    H    0.49902993    0.86857005    0.50000000    0.25960000
opls_144-102    H    0.78395015    0.33918006    0.50000000    0.12590000
opls_910-103    H    0.80018016    0.44106008    0.50000000    0.31100000
opls_146-104    H    0.87484001    0.51140011    0.50000000    0.25930000
opls_146-105    H    0.86857001    0.36953991    0.50000000    0.25960000
opls_144-106    H    0.66081997    0.44477019    0.50000000    0.12590000
opls_910-107    H    0.55894009    0.35912003    0.50000000    0.31100000
opls_146-108    H    0.48860006    0.36343998    0.50000000    0.25930000
opls_146-109    H    0.63045992    0.49903013    0.50000000    0.25960000
opls_144-110    H    0.55523007    0.21605014    0.50000000    0.12600000
opls_910-111    H    0.64088008    0.19981989    0.50000000    0.31090000
opls_146-112    H    0.63655993    0.12515990    0.50000000    0.25930000
opls_146-113    H    0.50097007    0.13142995    0.50000000    0.25960000
