#======================================================================
# Crystal Data Generated By AuToFF
#----------------------------------------------------------------------

data_AuToFF_phase_1

_cell_length_a                         21.8000
_cell_length_b                         21.8000
_cell_length_c                         3.2400
_cell_angle_alpha                      90.00
_cell_angle_beta                       90.00
_cell_angle_gamma                      120.00
_symmetry_space_group_name_H-M_alt     'P 1'
_symmetry_space_group_IT_number        1

loop_
_space_group_symop_operation_xyz
   'x, y, z'

loop_
   _atom_site_label
   _atom_site_type_symbol
   _atom_site_fract_x
   _atom_site_fract_y
   _atom_site_fract_z
   _atom_site_charge
opls_280-0    C    0.54027007    0.87216032    0.48166975    0.30770000
opls_145-1    C    0.21035029    0.69676022    0.48166975    -0.23370000
opls_916-2    C    0.18266033    0.74128029    0.48166975    0.21890000
opls_145-3    C    0.22589010    0.81324993    0.48166975    -0.18850000
opls_145-4    C    0.29619005    0.84001038    0.48166975    -0.18880000
opls_142-5    C    0.06280021    0.65358023    0.48166975    0.12330000
opls_145-6    C    0.99485995    0.64067036    0.48166975    -0.11010000
opls_231-7    C    0.96909976    0.67863989    0.48166975    0.21150000
opls_700-8    C    0.89798998    0.66260014    0.48166975    -0.09600000
opls_280-9    C    0.84191015    0.59227992    0.48166975    0.23440000
opls_145-10    C    0.85912010    0.53755029    0.48166975    -0.09600000
opls_145-11    C    0.51099995    0.91811000    0.48166975    -0.09640000
opls_280-12    C    0.92992982    0.55110001    0.48166975    0.26940000
opls_142-13    C    0.80523004    0.47008027    0.48166975    0.12330000
opls_916-14    C    0.77455971    0.34966988    0.48166975    0.21900000
opls_145-15    C    0.70336010    0.32313030    0.48166975    -0.23320000
opls_142-16    C    0.88404006    0.71737004    0.48166975    0.12320000
opls_916-17    C    0.79513025    0.75025041    0.48166975    0.21920000
opls_145-18    C    0.83893988    0.82132012    0.48166975    -0.23370000
opls_142-19    C    0.67102002    0.09096023    0.48166975    0.12330000
opls_916-20    C    0.68833030    0.20642024    0.48166975    0.15450000
opls_145-21    C    0.76100997    0.23523003    0.48166975    -0.18850000
opls_280-22    C    0.55312984    0.99281013    0.48166975    0.30780000
opls_142-23    C    0.64153982    0.85903010    0.48166975    0.12330000
opls_916-24    C    0.73847000    0.83918037    0.48166975    0.15450000
opls_145-25    C    0.69544999    0.76661008    0.48166975    -0.18860000
opls_768-26    C    0.81116028    0.86569029    0.48166975    -0.03190000
opls_768-27    C    0.66033003    0.25206006    0.48166975    -0.03650000
opls_145-28    C    0.80343979    0.30541994    0.48166975    -0.18850000
opls_145-29    C    0.72303011    0.72298040    0.48166975    -0.18860000
opls_145-30    C    0.62740011    0.02099013    0.48166975    -0.09630000
opls_280-31    C    0.66014026    0.97777042    0.48166975    0.30770000
opls_145-32    C    0.61513990    0.90373027    0.48166975    -0.09600000
opls_142-33    C    0.44079030    0.89255033    0.48166975    0.12330000
opls_916-34    C    0.32625992    0.79644003    0.48166975    0.15450000
opls_768-35    C    0.28166005    0.72389992    0.48166975    -0.03450000
opls_146-36    H    0.32942001    0.89727030    0.48166975    0.11880000
opls_144-37    H    0.72759001    0.10806993    0.48166975    0.08470000
opls_146-38    H    0.89639991    0.84542000    0.48166975    0.11220000
opls_144-39    H    0.92795007    0.77162032    0.48166975    0.10290000
opls_910-40    H    0.59081013    0.11188998    0.48166975    0.27020000
opls_910-41    H    0.74113990    0.93763027    0.48166975    0.27920000
opls_910-42    H    0.42189995    0.79272009    0.48166975    0.27270000
opls_910-43    H    0.08920989    0.75387023    0.48166975    0.25360000
opls_910-44    H    0.87880022    0.44198026    0.48166975    0.25900000
opls_910-45    H    0.78405971    0.64506988    0.48166975    0.26000000
opls_146-46    H    0.20184994    0.84742006    0.48166975    0.13370000
opls_144-47    H    0.42268995    0.93180009    0.48166975    0.07090000
opls_146-48    H    0.68931988    0.66558012    0.48166975    0.11230000
opls_146-49    H    0.86090007    0.32852031    0.48166975    0.11350000
opls_146-50    H    0.67813978    0.35620983    0.48166975    0.12380000
opls_144-51    H    0.75063033    0.46022029    0.48166975    0.07380000
opls_146-52    H    0.63829010    0.74370039    0.48166975    0.11900000
opls_144-53    H    0.60286997    0.80277022    0.48166975    0.11120000
opls_146-54    H    0.17810977    0.63937000    0.48166975    0.11890000
opls_144-55    H    0.07358007    0.60907023    0.48166975    0.05830000
opls_146-56    H    0.78505022    0.20127017    0.48166975    0.08940000
opls_238-57    N    0.39687989    0.82479005    0.48166975    -0.22550000
opls_238-58    N    0.70949019    0.88162993    0.48166975    -0.22600000
opls_238-59    N    0.64707971    0.13590987    0.48166975    -0.22550000
opls_238-60    N    0.81887025    0.70331023    0.48166975    -0.21440000
opls_238-61    N    0.82055003    0.41938997    0.48166975    -0.22760000
opls_238-62    N    0.11273996    0.71832028    0.48166975    -0.22610000
opls_767-63    N    0.30638012    0.67342996    0.48166975    0.43920000
opls_767-64    N    0.86089996    0.93954029    0.48166975    0.43980000
opls_767-65    N    0.58607001    0.22846020    0.48166975    0.43920000
opls_272-66    O    0.02829039    0.76093033    0.48166975    -0.36770000
opls_761-67    O    0.83835025    0.98147023    0.48166975    -0.29530000
opls_761-68    O    0.56756999    0.27331979    0.48166975    -0.30480000
opls_761-69    O    0.54521999    0.16495006    0.48166975    -0.31210000
opls_281-70    O    0.94546003    0.50210998    0.48166975    -0.37470000
opls_281-71    O    0.77822029    0.57789013    0.48166975    -0.37370000
opls_281-72    O    0.52554023    0.03133000    0.48166975    -0.33290000
opls_281-73    O    0.72531003    0.00432006    0.48166975    -0.36880000
opls_281-74    O    0.50269011    0.80708022    0.48166975    -0.41750000
opls_761-75    O    0.37007012    0.69530996    0.48166975    -0.31020000
opls_761-76    O    0.26248017    0.61116034    0.48166975    -0.31210000
opls_761-77    O    0.92330028    0.95675010    0.48166975    -0.31440000
