#======================================================================
# Crystal Data Generated By AuToFF
#----------------------------------------------------------------------

data_AuToFF_phase_1

_cell_length_a                         25.2000
_cell_length_b                         25.2000
_cell_length_c                         3.4000
_cell_angle_alpha                      90.00
_cell_angle_beta                       90.00
_cell_angle_gamma                      120.00
_symmetry_space_group_name_H-M_alt     'P 1'
_symmetry_space_group_IT_number        1

loop_
_space_group_symop_operation_xyz
   'x, y, z'

loop_
   _atom_site_label
   _atom_site_type_symbol
   _atom_site_fract_x
   _atom_site_fract_y
   _atom_site_fract_z
   _atom_site_charge
opls_145-0    C    0.36091010    0.63105989    0.00000000    -0.08380000
opls_142-1    C    0.39056012    0.59799009    0.00000000    0.11800000
opls_916-2    C    0.40662975    0.51291982    0.00000000    0.22960000
opls_145-3    C    0.41700005    0.42440011    0.00000000    -0.07880000
opls_145-4    C    0.48075999    0.46273983    0.00000000    0.08730000
opls_145-5    C    0.50517977    0.52336986    0.00000000    -0.16270000
opls_145-6    C    0.46845978    0.54902987    0.00000000    -0.14880000
opls_145-7    C    0.52017004    0.43734008    0.00000000    0.08730000
opls_145-8    C    0.49138987    0.37140989    0.00000000    -0.08510000
opls_523-9    C    0.52842003    0.34602022    0.00000000    -0.09990000
opls_522-10    C    0.59083021    0.38330010    0.00000000    0.01990000
opls_523-11    C    0.61611010    0.44534005    0.00000000    -0.10630000
opls_145-12    C    0.57908017    0.47073017    0.00000000    -0.16270000
opls_531-13    C    0.62958012    0.35744993    0.00000000    0.41480000
opls_280-14    C    0.39603006    0.69354981    0.00000000    0.33410000
opls_145-15    C    0.37865985    0.44979985    0.00000000    -0.14700000
opls_145-16    C    0.36894009    0.72985002    0.00000000    -0.08380000
opls_142-17    C    0.40200998    0.79256996    0.00000000    0.11800000
opls_916-18    C    0.48707991    0.89370981    0.00000000    0.22960000
opls_145-19    C    0.57559992    0.99259984    0.00000000    -0.07880000
opls_145-20    C    0.53726010    0.01802020    0.00000000    0.08730000
opls_145-21    C    0.47662990    0.98180980    0.00000000    -0.16270000
opls_145-22    C    0.45097009    0.91942985    0.00000000    -0.14880000
opls_145-23    C    0.56265987    0.08283006    0.00000000    0.08730000
opls_145-24    C    0.62858990    0.11997980    0.00000000    -0.08510000
opls_523-25    C    0.65398020    0.18240007    0.00000000    -0.09990000
opls_522-26    C    0.61669989    0.20752993    0.00000000    0.01990000
opls_523-27    C    0.55466007    0.17077013    0.00000000    -0.10630000
opls_145-28    C    0.52926977    0.10834986    0.00000000    -0.16270000
opls_531-29    C    0.64254988    0.27212993    0.00000000    0.41480000
opls_280-30    C    0.30644989    0.70247995    0.00000000    0.33410000
opls_145-31    C    0.55019979    0.92885991    0.00000000    -0.14700000
opls_145-32    C    0.27015021    0.63909010    0.00000000    -0.08380000
opls_142-33    C    0.20742990    0.60943995    0.00000000    0.11810000
opls_916-34    C    0.10629011    0.59336991    0.00000000    0.22960000
opls_145-35    C    0.00740003    0.58300006    0.00000000    -0.07880000
opls_145-36    C    0.98197991    0.51923997    0.00000000    0.08730000
opls_145-37    C    0.01819010    0.49481989    0.00000000    -0.16260000
opls_145-38    C    0.08056991    0.53153982    0.00000000    -0.14870000
opls_145-39    C    0.91717009    0.47982986    0.00000000    0.08730000
opls_145-40    C    0.88002000    0.50860985    0.00000000    -0.08510000
opls_523-41    C    0.81760000    0.47158016    0.00000000    -0.09990000
opls_522-42    C    0.79246991    0.40916997    0.00000000    0.01990000
opls_523-43    C    0.82922983    0.38388982    0.00000000    -0.10630000
opls_145-44    C    0.89165006    0.42091997    0.00000000    -0.16270000
opls_531-45    C    0.72786999    0.37042015    0.00000000    0.41480000
opls_280-46    C    0.29751981    0.60396979    0.00000000    0.33440000
opls_145-47    C    0.07113973    0.62133978    0.00000000    -0.14700000
opls_238-48    N    0.36712992    0.53987016    0.00000000    -0.20380000
opls_520-49    N    0.60393016    0.29498017    0.00000000    -0.39670000
opls_238-50    N    0.46013000    0.82726001    0.00000000    -0.20380000
opls_520-51    N    0.70501995    0.30895021    0.00000000    -0.39670000
opls_238-52    N    0.17274008    0.63286983    0.00000000    -0.20380000
opls_520-53    N    0.69105012    0.39607008    0.00000000    -0.39680000
opls_272-54    O    0.45486022    0.71726012    0.00000000    -0.42260000
opls_272-55    O    0.28273998    0.73759980    0.00000000    -0.42270000
opls_272-56    O    0.26240020    0.54514009    0.00000000    -0.42260000
opls_146-57    H    0.39632011    0.37251006    0.00000000    0.04790000
opls_146-58    H    0.55710003    0.55436990    0.00000000    0.04790000
opls_146-59    H    0.49009006    0.60101980    0.00000000    0.04790000
opls_146-60    H    0.43928986    0.34205988    0.00000000    0.04790000
opls_526-61    H    0.50728989    0.29407978    0.00000000    0.04790000
opls_526-62    H    0.66805015    0.47612015    0.00000000    0.04790000
opls_146-63    H    0.60163988    0.52280992    0.00000000    0.04790000
opls_146-64    H    0.32654022    0.42077013    0.00000000    0.04790000
opls_144-65    H    0.43603008    0.62724983    0.00000000    0.13370000
opls_910-66    H    0.32076004    0.50807007    0.00000000    0.29010000
opls_146-67    H    0.62749002    0.02381020    0.00000000    0.04790000
opls_146-68    H    0.44563010    0.00273004    0.00000000    0.04790000
opls_146-69    H    0.39897981    0.88906993    0.00000000    0.04790000
opls_146-70    H    0.65793996    0.09722991    0.00000000    0.04790000
opls_526-71    H    0.70592006    0.21320996    0.00000000    0.04790000
opls_526-72    H    0.52388009    0.19193002    0.00000000    0.04800000
opls_146-73    H    0.47718992    0.07882985    0.00000000    0.04790000
opls_146-74    H    0.57922985    0.90577002    0.00000000    0.04790000
opls_144-75    H    0.37275003    0.80878021    0.00000000    0.13370000
opls_910-76    H    0.49193000    0.81269016    0.00000000    0.29010000
opls_146-77    H    0.97619010    0.60368020    0.00000000    0.04790000
opls_146-78    H    0.99726987    0.44290006    0.00000000    0.04790000
opls_146-79    H    0.11092990    0.50990981    0.00000000    0.04790000
opls_146-80    H    0.90277019    0.56071021    0.00000000    0.04790000
opls_526-81    H    0.78678982    0.49270981    0.00000000    0.04790000
opls_526-82    H    0.80806976    0.33194983    0.00000000    0.04790000
opls_146-83    H    0.92116997    0.39835978    0.00000000    0.04790000
opls_146-84    H    0.09422992    0.67345985    0.00000000    0.04800000
opls_144-85    H    0.19121990    0.56396995    0.00000000    0.13370000
opls_910-86    H    0.18731019    0.67924023    0.00000000    0.29010000
