#======================================================================
# Crystal Data Generated By AuToFF
#----------------------------------------------------------------------

data_AuToFF_phase_1

_cell_length_a                         3.5200
_cell_length_b                         102.5900
_cell_length_c                         59.2300
_cell_angle_alpha                      90.00
_cell_angle_beta                       90.00
_cell_angle_gamma                      90.00
_symmetry_space_group_name_H-M_alt     'P 1'
_symmetry_space_group_IT_number        1

loop_
_space_group_symop_operation_xyz
   'x, y, z'

loop_
   _atom_site_label
   _atom_site_type_symbol
   _atom_site_fract_x
   _atom_site_fract_y
   _atom_site_fract_z
   _atom_site_charge
opls_700-0    C    0.00000000    0.17340004    0.89520007    0.08540000
opls_700-1    C    0.00000000    0.18050005    0.91700000    0.07830000
opls_700-2    C    0.00000000    0.21620002    0.06130002    0.08150000
opls_700-3    C    0.00000000    0.26469997    0.20669998    0.08150000
opls_700-4    C    0.00000000    0.31889999    0.33249992    0.07830000
opls_700-5    C    0.00000000    0.32630003    0.35400000    0.08990000
opls_700-6    C    0.00000000    0.20259996    0.02009995    0.07780000
opls_145-7    C    0.00000000    0.19379998    0.95860003    0.24100000
opls_145-8    C    0.00000000    0.18030003    0.87479993    -0.07600000
opls_145-9    C    0.00000000    0.17350005    0.93750008    -0.07170000
opls_145-10    C    0.00000000    0.20259996    0.06100000    -0.08700000
opls_145-11    C    0.00000000    0.25800000    0.22739997    -0.06960000
opls_145-12    C    0.00000000    0.30520002    0.33269998    -0.06960000
opls_145-13    C    0.00000000    0.20079998    0.93830002    -0.12510000
opls_145-14    C    0.00000000    0.21620002    0.02020007    -0.08540000
opls_145-15    C    0.00000000    0.22300000    0.04060003    -0.07170000
opls_145-16    C    0.00000000    0.19410001    0.91769998    -0.08690000
opls_145-17    C    0.00000000    0.29820002    0.31249992    -0.12490000
opls_145-18    C    0.00000000    0.26479998    0.24779993    -0.08560000
opls_145-19    C    0.00000000    0.27840004    0.20690005    -0.06970000
opls_145-20    C    0.00000000    0.32540004    0.31169998    -0.08690000
opls_145-21    C    0.00000000    0.18010001    0.95809995    -0.12490000
opls_145-22    C    0.00000000    0.19579998    0.04049992    -0.08690000
opls_145-23    C    0.00000000    0.30479998    0.29169998    0.24700000
opls_700-24    C    0.00000000    0.27840004    0.24779993    0.07560000
opls_145-25    C    0.00000000    0.31840004    0.29149992    -0.10340000
opls_145-26    C    0.00000000    0.28520002    0.22730002    -0.08700000
opls_700-27    C    0.00000000    0.34700000    0.37409995    0.08540000
opls_700-28    C    0.00000000    0.36140004    0.37379993    0.08690000
opls_700-29    C    0.00000000    0.45149995    0.35709995    0.07850000
opls_700-30    C    0.00000000    0.42410001    0.35630002    0.07080000
opls_145-31    C    0.00000000    0.38889999    0.37330002    0.24010000
opls_145-32    C    0.00000000    0.33989999    0.35390005    -0.07600000
opls_145-33    C    0.00000000    0.36859996    0.39409995    -0.07170000
opls_145-34    C    0.00000000    0.44440004    0.37730002    -0.08700000
opls_145-35    C    0.00000000    0.38189999    0.35290005    -0.12500000
opls_145-36    C    0.00000000    0.43120002    0.33609995    -0.08700000
opls_145-37    C    0.00000000    0.36830003    0.35320007    -0.07170000
opls_145-38    C    0.00000000    0.44479998    0.33649992    -0.08700000
opls_145-39    C    0.00000000    0.38220002    0.39379993    -0.10350000
opls_145-40    C    0.00000000    0.43079998    0.37690005    -0.08700000
opls_145-41    C    0.00000000    0.15979998    0.89460003    -0.07600000
opls_142-42    C    0.00000000    0.19510001    0.99900000    0.01540000
opls_142-43    C    0.00000000    0.28530003    0.26949992    0.02210000
opls_142-44    C    0.00000000    0.40979998    0.35530002    0.01720000
opls_700-45    C    0.00000000    0.25740004    0.18520007    0.03990000
opls_521-46    C    0.00000000    0.26400000    0.16430002    0.01720000
opls_521-47    C    0.00000000    0.24389999    0.14420007    0.10000000
opls_700-48    C    0.00000000    0.23689999    0.16479993    0.01650000
opls_523-49    C    0.00000000    0.24369997    0.18509995    -0.07600000
opls_523-50    C    0.00000000    0.22330003    0.16469998    -0.08530000
opls_523-51    C    0.00000000    0.21649995    0.14430002    -0.08570000
opls_700-52    C    0.00000000    0.22330003    0.12390005    0.01650000
opls_521-53    C    0.00000000    0.23710001    0.12369998    0.09930000
opls_521-54    C    0.00000000    0.23710001    0.08360003    0.10460000
opls_700-55    C    0.00000000    0.22340004    0.08300000    0.03450000
opls_523-56    C    0.00000000    0.21659996    0.10349992    -0.07280000
opls_700-57    C    0.00000000    0.46600000    0.35749992    0.03100000
opls_521-58    C    0.00000000    0.47310001    0.33739997    0.10470000
opls_521-59    C    0.00000000    0.49320002    0.35749992    0.09900000
opls_700-60    C    0.00000000    0.48640004    0.37820007    0.01650000
opls_523-61    C    0.00000000    0.47279998    0.37800000    -0.07600000
opls_523-62    C    0.00000000    0.49320002    0.39860003    -0.08560000
opls_700-63    C    0.00000000    0.67340004    0.39520007    0.08540000
opls_700-64    C    0.00000000    0.68049995    0.41700000    0.07830000
opls_700-65    C    0.00000000    0.71620002    0.56130002    0.08150000
opls_700-66    C    0.00000000    0.76469997    0.70669998    0.08160000
opls_700-67    C    0.00000000    0.81889999    0.83249992    0.07830000
opls_700-68    C    0.00000000    0.82630003    0.85400000    0.08990000
opls_700-69    C    0.00000000    0.70259996    0.52009995    0.07780000
opls_145-70    C    0.00000000    0.69379998    0.45860003    0.24080000
opls_145-71    C    0.00000000    0.68030003    0.37479993    -0.07600000
opls_145-72    C    0.00000000    0.67349995    0.43750008    -0.07170000
opls_145-73    C    0.00000000    0.70259996    0.56100000    -0.08700000
opls_145-74    C    0.00000000    0.75800000    0.72739997    -0.06960000
opls_145-75    C    0.00000000    0.80520002    0.83269998    -0.06960000
opls_145-76    C    0.00000000    0.70079998    0.43830002    -0.12510000
opls_145-77    C    0.00000000    0.71620002    0.52020007    -0.08540000
opls_145-78    C    0.00000000    0.72300000    0.54060003    -0.07170000
opls_145-79    C    0.00000000    0.69410001    0.41769998    -0.08690000
opls_145-80    C    0.00000000    0.79820002    0.81250008    -0.12490000
opls_145-81    C    0.00000000    0.76479998    0.74779993    -0.08560000
opls_145-82    C    0.00000000    0.77840004    0.70690005    -0.06970000
opls_145-83    C    0.00000000    0.82540004    0.81169998    -0.08690000
opls_145-84    C    0.00000000    0.68010001    0.45809995    -0.12470000
opls_145-85    C    0.00000000    0.69579998    0.54050008    -0.08700000
opls_145-86    C    0.00000000    0.80479998    0.79169998    0.24700000
opls_700-87    C    0.00000000    0.77840004    0.74779993    0.07560000
opls_145-88    C    0.00000000    0.81840004    0.79149992    -0.10350000
opls_145-89    C    0.00000000    0.78520002    0.72730002    -0.08700000
opls_700-90    C    0.00000000    0.84700000    0.87409995    0.08540000
opls_700-91    C    0.00000000    0.86140004    0.87379993    0.08690000
opls_700-92    C    0.00000000    0.95149995    0.85709995    0.07850000
opls_700-93    C    0.00000000    0.92410001    0.85630002    0.07080000
opls_145-94    C    0.00000000    0.88889999    0.87330002    0.24000000
opls_145-95    C    0.00000000    0.83989999    0.85390005    -0.07600000
opls_145-96    C    0.00000000    0.86859996    0.89409995    -0.07170000
opls_145-97    C    0.00000000    0.94440004    0.87730002    -0.08700000
opls_145-98    C    0.00000000    0.88189999    0.85290005    -0.12510000
opls_145-99    C    0.00000000    0.93120002    0.83609995    -0.08700000
opls_145-100    C    0.00000000    0.86830003    0.85320007    -0.07170000
opls_145-101    C    0.00000000    0.94479998    0.83650008    -0.08700000
opls_145-102    C    0.00000000    0.88220002    0.89379993    -0.10340000
opls_145-103    C    0.00000000    0.93079998    0.87690005    -0.08700000
opls_145-104    C    0.00000000    0.65979998    0.39460003    -0.07600000
opls_142-105    C    0.00000000    0.69510001    0.49900000    0.01540000
opls_142-106    C    0.00000000    0.78530003    0.76950008    0.02200000
opls_142-107    C    0.00000000    0.90979998    0.85530002    0.01720000
opls_700-108    C    0.00000000    0.75740004    0.68520007    0.03990000
opls_521-109    C    0.00000000    0.76400000    0.66430002    0.01720000
opls_521-110    C    0.00000000    0.74389999    0.64420007    0.10000000
opls_700-111    C    0.00000000    0.73689999    0.66479993    0.01650000
opls_523-112    C    0.00000000    0.74369997    0.68509995    -0.07600000
opls_523-113    C    0.00000000    0.72330003    0.66469998    -0.08560000
opls_523-114    C    0.00000000    0.71650005    0.64430002    -0.08570000
opls_700-115    C    0.00000000    0.72330003    0.62390005    0.01650000
opls_521-116    C    0.00000000    0.73710001    0.62369998    0.09930000
opls_521-117    C    0.00000000    0.73710001    0.58360003    0.10460000
opls_700-118    C    0.00000000    0.72340004    0.58300000    0.03450000
opls_523-119    C    0.00000000    0.71659996    0.60350008    -0.07280000
opls_700-120    C    0.00000000    0.96600000    0.85749992    0.03100000
opls_521-121    C    0.00000000    0.97310001    0.83739997    0.10460000
opls_521-122    C    0.00000000    0.99320002    0.85749992    0.09900000
opls_700-123    C    0.00000000    0.98640004    0.87820007    0.01650000
opls_523-124    C    0.00000000    0.97279998    0.87800000    -0.07600000
opls_523-125    C    0.00000000    0.99320002    0.89860003    -0.08560000
opls_700-126    C    0.00000000    0.82659996    0.89520007    0.08540000
opls_700-127    C    0.00000000    0.81950005    0.91700000    0.07830000
opls_700-128    C    0.00000000    0.78379998    0.06130002    0.08150000
opls_700-129    C    0.00000000    0.73530003    0.20669998    0.08150000
opls_700-130    C    0.00000000    0.68110001    0.33249992    0.07840000
opls_700-131    C    0.00000000    0.67369997    0.35400000    0.08990000
opls_700-132    C    0.00000000    0.79740004    0.02009995    0.07780000
opls_145-133    C    0.00000000    0.80620002    0.95860003    0.24080000
opls_145-134    C    0.00000000    0.81969997    0.87479993    -0.07600000
opls_145-135    C    0.00000000    0.82649995    0.93750008    -0.07170000
opls_145-136    C    0.00000000    0.79740004    0.06100000    -0.08700000
opls_145-137    C    0.00000000    0.74200000    0.22739997    -0.06960000
opls_145-138    C    0.00000000    0.69479998    0.33269998    -0.06960000
opls_145-139    C    0.00000000    0.79920002    0.93830002    -0.12510000
opls_145-140    C    0.00000000    0.78379998    0.02020007    -0.08540000
opls_145-141    C    0.00000000    0.77700000    0.04060003    -0.07170000
opls_145-142    C    0.00000000    0.80589999    0.91769998    -0.08690000
opls_145-143    C    0.00000000    0.70179998    0.31249992    -0.12490000
opls_145-144    C    0.00000000    0.73520002    0.24779993    -0.08560000
opls_145-145    C    0.00000000    0.72159996    0.20690005    -0.06970000
opls_145-146    C    0.00000000    0.67459996    0.31169998    -0.08680000
opls_145-147    C    0.00000000    0.81989999    0.95809995    -0.12480000
opls_145-148    C    0.00000000    0.80420002    0.04049992    -0.08700000
opls_145-149    C    0.00000000    0.69520002    0.29169998    0.24700000
opls_700-150    C    0.00000000    0.72159996    0.24779993    0.07560000
opls_145-151    C    0.00000000    0.68159996    0.29149992    -0.10350000
opls_145-152    C    0.00000000    0.71479998    0.22730002    -0.08700000
opls_700-153    C    0.00000000    0.65300000    0.37409995    0.08550000
opls_700-154    C    0.00000000    0.63859996    0.37379993    0.08690000
opls_700-155    C    0.00000000    0.54849995    0.35709995    0.07850000
opls_700-156    C    0.00000000    0.57589999    0.35630002    0.07080000
opls_145-157    C    0.00000000    0.61110001    0.37330002    0.24000000
opls_145-158    C    0.00000000    0.66010001    0.35390005    -0.07600000
opls_145-159    C    0.00000000    0.63140004    0.39409995    -0.07170000
opls_145-160    C    0.00000000    0.55559996    0.37730002    -0.08700000
opls_145-161    C    0.00000000    0.61810001    0.35290005    -0.12510000
opls_145-162    C    0.00000000    0.56879998    0.33609995    -0.08700000
opls_145-163    C    0.00000000    0.63169997    0.35320007    -0.07170000
opls_145-164    C    0.00000000    0.55520002    0.33649992    -0.08690000
opls_145-165    C    0.00000000    0.61779998    0.39379993    -0.10350000
opls_145-166    C    0.00000000    0.56920002    0.37690005    -0.08700000
opls_145-167    C    0.00000000    0.84020002    0.89460003    -0.07600000
opls_142-168    C    0.00000000    0.80489999    0.99900000    0.01550000
opls_142-169    C    0.00000000    0.71469997    0.26949992    0.02200000
opls_142-170    C    0.00000000    0.59020002    0.35530002    0.01720000
opls_700-171    C    0.00000000    0.74259996    0.18520007    0.03990000
opls_521-172    C    0.00000000    0.73600000    0.16430002    0.01720000
opls_521-173    C    0.00000000    0.75610001    0.14420007    0.10000000
opls_700-174    C    0.00000000    0.76310001    0.16479993    0.01650000
opls_523-175    C    0.00000000    0.75630003    0.18509995    -0.07600000
opls_523-176    C    0.00000000    0.77669997    0.16469998    -0.08540000
opls_523-177    C    0.00000000    0.78350005    0.14430002    -0.08560000
opls_700-178    C    0.00000000    0.77669997    0.12390005    0.01660000
opls_521-179    C    0.00000000    0.76289999    0.12369998    0.09940000
opls_521-180    C    0.00000000    0.76289999    0.08360003    0.10460000
opls_700-181    C    0.00000000    0.77659996    0.08300000    0.03450000
opls_523-182    C    0.00000000    0.78340004    0.10349992    -0.07280000
opls_700-183    C    0.00000000    0.53400000    0.35749992    0.03100000
opls_521-184    C    0.00000000    0.52689999    0.33739997    0.10460000
opls_521-185    C    0.00000000    0.50679998    0.35749992    0.09900000
opls_700-186    C    0.00000000    0.51359996    0.37820007    0.01650000
opls_523-187    C    0.00000000    0.52720002    0.37800000    -0.07600000
opls_523-188    C    0.00000000    0.50679998    0.39860003    -0.08550000
opls_700-189    C    0.00000000    0.32659996    0.39520007    0.08540000
opls_700-190    C    0.00000000    0.31949995    0.41700000    0.07840000
opls_700-191    C    0.00000000    0.28379998    0.56130002    0.08150000
opls_700-192    C    0.00000000    0.23530003    0.70669998    0.08150000
opls_700-193    C    0.00000000    0.18110001    0.83249992    0.07830000
opls_700-194    C    0.00000000    0.17369997    0.85400000    0.08990000
opls_700-195    C    0.00000000    0.29740004    0.52009995    0.07780000
opls_145-196    C    0.00000000    0.30620002    0.45860003    0.24080000
opls_145-197    C    0.00000000    0.31969997    0.37479993    -0.07600000
opls_145-198    C    0.00000000    0.32650005    0.43750008    -0.07170000
opls_145-199    C    0.00000000    0.29740004    0.56100000    -0.08700000
opls_145-200    C    0.00000000    0.24200000    0.72739997    -0.06960000
opls_145-201    C    0.00000000    0.19479998    0.83269998    -0.06960000
opls_145-202    C    0.00000000    0.29920002    0.43830002    -0.12510000
opls_145-203    C    0.00000000    0.28379998    0.52020007    -0.08540000
opls_145-204    C    0.00000000    0.27700000    0.54060003    -0.07170000
opls_145-205    C    0.00000000    0.30589999    0.41769998    -0.08690000
opls_145-206    C    0.00000000    0.20179998    0.81250008    -0.12490000
opls_145-207    C    0.00000000    0.23520002    0.74779993    -0.08560000
opls_145-208    C    0.00000000    0.22159996    0.70690005    -0.06970000
opls_145-209    C    0.00000000    0.17459996    0.81169998    -0.08690000
opls_145-210    C    0.00000000    0.31989999    0.45809995    -0.12490000
opls_145-211    C    0.00000000    0.30420002    0.54050008    -0.08700000
opls_145-212    C    0.00000000    0.19520002    0.79169998    0.24710000
opls_700-213    C    0.00000000    0.22159996    0.74779993    0.07570000
opls_145-214    C    0.00000000    0.18159996    0.79149992    -0.10350000
opls_145-215    C    0.00000000    0.21479998    0.72730002    -0.08700000
opls_700-216    C    0.00000000    0.15300000    0.87409995    0.08540000
opls_700-217    C    0.00000000    0.13859996    0.87379993    0.08690000
opls_700-218    C    0.00000000    0.04850005    0.85709995    0.07850000
opls_700-219    C    0.00000000    0.07589999    0.85630002    0.07080000
opls_145-220    C    0.00000000    0.11110001    0.87330002    0.24020000
opls_145-221    C    0.00000000    0.16010001    0.85390005    -0.07600000
opls_145-222    C    0.00000000    0.13140004    0.89409995    -0.07170000
opls_145-223    C    0.00000000    0.05559996    0.87730002    -0.08700000
opls_145-224    C    0.00000000    0.11810001    0.85290005    -0.12510000
opls_145-225    C    0.00000000    0.06879998    0.83609995    -0.08700000
opls_145-226    C    0.00000000    0.13169997    0.85320007    -0.07170000
opls_145-227    C    0.00000000    0.05520002    0.83650008    -0.08680000
opls_145-228    C    0.00000000    0.11779998    0.89379993    -0.10340000
opls_145-229    C    0.00000000    0.06920002    0.87690005    -0.08700000
opls_145-230    C    0.00000000    0.34020002    0.39460003    -0.07600000
opls_142-231    C    0.00000000    0.30489999    0.49900000    0.01540000
opls_142-232    C    0.00000000    0.21469997    0.76950008    0.02200000
opls_142-233    C    0.00000000    0.09020002    0.85530002    0.01720000
opls_700-234    C    0.00000000    0.24259996    0.68520007    0.03990000
opls_521-235    C    0.00000000    0.23600000    0.66430002    0.01720000
opls_521-236    C    0.00000000    0.25610001    0.64420007    0.10000000
opls_700-237    C    0.00000000    0.26310001    0.66479993    0.01650000
opls_523-238    C    0.00000000    0.25630003    0.68509995    -0.07600000
opls_523-239    C    0.00000000    0.27669997    0.66469998    -0.08560000
opls_523-240    C    0.00000000    0.28349995    0.64430002    -0.08570000
opls_700-241    C    0.00000000    0.27669997    0.62390005    0.01650000
opls_521-242    C    0.00000000    0.26289999    0.62369998    0.09930000
opls_521-243    C    0.00000000    0.26289999    0.58360003    0.10460000
opls_700-244    C    0.00000000    0.27659996    0.58300000    0.03450000
opls_523-245    C    0.00000000    0.28340004    0.60350008    -0.07280000
opls_700-246    C    0.00000000    0.03400000    0.85749992    0.03100000
opls_521-247    C    0.00000000    0.02689999    0.83739997    0.10470000
opls_521-248    C    0.00000000    0.00679998    0.85749992    0.09900000
opls_700-249    C    0.00000000    0.01359996    0.87820007    0.01650000
opls_523-250    C    0.00000000    0.02720002    0.87800000    -0.07600000
opls_523-251    C    0.00000000    0.00679998    0.89860003    -0.08560000
opls_750-252    N    0.00000000    0.20089999    0.97950008    -0.26370000
opls_750-253    N    0.00000000    0.29789999    0.27069998    -0.22470000
opls_750-254    N    0.00000000    0.40289999    0.37360003    -0.26410000
opls_520-255    N    0.00000000    0.25720002    0.14460003    -0.22470000
opls_520-256    N    0.00000000    0.24349995    0.10360003    -0.22580000
opls_520-257    N    0.00000000    0.48640004    0.33769998    -0.26410000
opls_750-258    N    0.00000000    0.70089999    0.47949992    -0.26400000
opls_750-259    N    0.00000000    0.79789999    0.77069998    -0.22460000
opls_750-260    N    0.00000000    0.90289999    0.87360003    -0.26400000
opls_520-261    N    0.00000000    0.75720002    0.64460003    -0.22460000
opls_520-262    N    0.00000000    0.74350005    0.60360003    -0.22600000
opls_520-263    N    0.00000000    0.98640004    0.83769998    -0.26410000
opls_750-264    N    0.00000000    0.79910001    0.97950008    -0.26390000
opls_750-265    N    0.00000000    0.70210001    0.27069998    -0.22470000
opls_750-266    N    0.00000000    0.59710001    0.37360003    -0.26400000
opls_520-267    N    0.00000000    0.74279998    0.14460003    -0.22470000
opls_520-268    N    0.00000000    0.75650005    0.10360003    -0.22600000
opls_520-269    N    0.00000000    0.51359996    0.33769998    -0.26410000
opls_750-270    N    0.00000000    0.29910001    0.47949992    -0.26400000
opls_750-271    N    0.00000000    0.20210001    0.77069998    -0.22470000
opls_750-272    N    0.00000000    0.09710001    0.87360003    -0.26410000
opls_520-273    N    0.00000000    0.24279998    0.64460003    -0.22470000
opls_520-274    N    0.00000000    0.25649995    0.60360003    -0.22600000
opls_520-275    N    0.00000000    0.01359996    0.83769998    -0.26380000
opls_146-276    H    0.00000000    0.19140998    0.87491997    0.05220000
opls_146-277    H    0.00000000    0.16239000    0.93730002    0.05220000
opls_146-278    H    0.00000000    0.19691997    0.07753993    0.05220000
opls_146-279    H    0.00000000    0.24689005    0.22764005    0.05220000
opls_146-280    H    0.00000000    0.29972999    0.34944994    0.05220000
opls_146-281    H    0.00000000    0.21191003    0.93857994    0.05220000
opls_146-282    H    0.00000000    0.22179998    0.00356998    0.05150000
opls_146-283    H    0.00000000    0.23410995    0.04047999    0.05230000
opls_146-284    H    0.00000000    0.19993996    0.90131994    0.05150000
opls_146-285    H    0.00000000    0.28708997    0.31282998    0.05220000
opls_146-286    H    0.00000000    0.25923998    0.26447003    0.05150000
opls_146-287    H    0.00000000    0.28403996    0.19030998    0.05150000
opls_146-288    H    0.00000000    0.33650999    0.31117002    0.05160000
opls_146-289    H    0.00000000    0.17433999    0.97456002    0.05220000
opls_146-290    H    0.00000000    0.18469003    0.04046007    0.05220000
opls_146-291    H    0.00000000    0.32379004    0.27466993    0.05220000
opls_146-292    H    0.00000000    0.29630997    0.22726000    0.05220000
opls_146-293    H    0.00000000    0.34542002    0.33718994    0.05150000
opls_146-294    H    0.00000000    0.36330997    0.41101992    0.05220000
opls_146-295    H    0.00000000    0.44972999    0.39418994    0.05220000
opls_146-296    H    0.00000000    0.38732995    0.33611008    0.05220000
opls_146-297    H    0.00000000    0.42586997    0.31921003    0.05220000
opls_146-298    H    0.00000000    0.36262004    0.33665997    0.05220000
opls_146-299    H    0.00000000    0.45052003    0.32000000    0.05220000
opls_146-300    H    0.00000000    0.38788001    0.41034003    0.05220000
opls_146-301    H    0.00000000    0.42508003    0.39339997    0.05220000
opls_146-302    H    0.00000000    0.15400000    0.91101992    0.05220000
opls_144-303    H    0.00000000    0.18400000    0.99991997    0.03080000
opls_144-304    H    0.00000000    0.27922000    0.28560999    0.03080000
opls_144-305    H    0.00000000    0.40464002    0.33826000    0.03080000
opls_524-306    H    0.00000000    0.27510995    0.16386004    0.03080000
opls_526-307    H    0.00000000    0.23810001    0.20173004    0.05150000
opls_526-308    H    0.00000000    0.21769997    0.18133007    0.05150000
opls_526-309    H    0.00000000    0.20539000    0.14430002    0.05220000
opls_524-310    H    0.00000000    0.24281996    0.06709995    0.03080000
opls_526-311    H    0.00000000    0.20549001    0.10338004    0.05220000
opls_524-312    H    0.00000000    0.46779004    0.32048995    0.03080000
opls_526-313    H    0.00000000    0.46715996    0.39459007    0.05160000
opls_526-314    H    0.00000000    0.48764002    0.41526996    0.05150000
opls_146-315    H    0.00000000    0.69140998    0.37491997    0.05220000
opls_146-316    H    0.00000000    0.66239000    0.43730002    0.05220000
opls_146-317    H    0.00000000    0.69691997    0.57753993    0.05220000
opls_146-318    H    0.00000000    0.74689005    0.72764005    0.05220000
opls_146-319    H    0.00000000    0.79972999    0.84944994    0.05220000
opls_146-320    H    0.00000000    0.71191003    0.43857994    0.05220000
opls_146-321    H    0.00000000    0.72179998    0.50356998    0.05150000
opls_146-322    H    0.00000000    0.73410995    0.54047999    0.05220000
opls_146-323    H    0.00000000    0.69993996    0.40131994    0.05150000
opls_146-324    H    0.00000000    0.78708997    0.81282998    0.05220000
opls_146-325    H    0.00000000    0.75923998    0.76447003    0.05150000
opls_146-326    H    0.00000000    0.78403996    0.69030998    0.05150000
opls_146-327    H    0.00000000    0.83650999    0.81117002    0.05150000
opls_146-328    H    0.00000000    0.67433999    0.47456002    0.05220000
opls_146-329    H    0.00000000    0.68469003    0.54046007    0.05220000
opls_146-330    H    0.00000000    0.82379004    0.77466993    0.05220000
opls_146-331    H    0.00000000    0.79630997    0.72726000    0.05220000
opls_146-332    H    0.00000000    0.84542002    0.83718994    0.05150000
opls_146-333    H    0.00000000    0.86330997    0.91101992    0.05220000
opls_146-334    H    0.00000000    0.94972999    0.89418994    0.05220000
opls_146-335    H    0.00000000    0.88732995    0.83611008    0.05220000
opls_146-336    H    0.00000000    0.92586997    0.81921003    0.05220000
opls_146-337    H    0.00000000    0.86262004    0.83665997    0.05230000
opls_146-338    H    0.00000000    0.95052003    0.82000000    0.05220000
opls_146-339    H    0.00000000    0.88788001    0.91034003    0.05220000
opls_146-340    H    0.00000000    0.92508003    0.89339997    0.05220000
opls_146-341    H    0.00000000    0.65400000    0.41101992    0.05220000
opls_144-342    H    0.00000000    0.68400000    0.49991997    0.03080000
opls_144-343    H    0.00000000    0.77922000    0.78560999    0.03080000
opls_144-344    H    0.00000000    0.90464002    0.83826000    0.03080000
opls_524-345    H    0.00000000    0.77510995    0.66386004    0.03080000
opls_526-346    H    0.00000000    0.73810001    0.70173004    0.05150000
opls_526-347    H    0.00000000    0.71769997    0.68133007    0.05150000
opls_526-348    H    0.00000000    0.70539000    0.64430002    0.05220000
opls_524-349    H    0.00000000    0.74281996    0.56709995    0.03080000
opls_526-350    H    0.00000000    0.70549001    0.60338004    0.05220000
opls_524-351    H    0.00000000    0.96779004    0.82048995    0.03080000
opls_526-352    H    0.00000000    0.96715996    0.89459007    0.05150000
opls_526-353    H    0.00000000    0.98764002    0.91526996    0.05150000
opls_146-354    H    0.00000000    0.80859002    0.87491997    0.05230000
opls_146-355    H    0.00000000    0.83761000    0.93730002    0.05220000
opls_146-356    H    0.00000000    0.80308003    0.07753993    0.05220000
opls_146-357    H    0.00000000    0.75310995    0.22764005    0.05220000
opls_146-358    H    0.00000000    0.70027001    0.34944994    0.05220000
opls_146-359    H    0.00000000    0.78808997    0.93857994    0.05220000
opls_146-360    H    0.00000000    0.77820002    0.00356998    0.05150000
opls_146-361    H    0.00000000    0.76589005    0.04047999    0.05220000
opls_146-362    H    0.00000000    0.80006004    0.90131994    0.05150000
opls_146-363    H    0.00000000    0.71291003    0.31282998    0.05220000
opls_146-364    H    0.00000000    0.74076002    0.26447003    0.05150000
opls_146-365    H    0.00000000    0.71596004    0.19030998    0.05150000
opls_146-366    H    0.00000000    0.66349001    0.31117002    0.05150000
opls_146-367    H    0.00000000    0.82566001    0.97456002    0.05220000
opls_146-368    H    0.00000000    0.81530997    0.04046007    0.05220000
opls_146-369    H    0.00000000    0.67620996    0.27466993    0.05220000
opls_146-370    H    0.00000000    0.70369003    0.22726000    0.05220000
opls_146-371    H    0.00000000    0.65457998    0.33718994    0.05150000
opls_146-372    H    0.00000000    0.63669003    0.41101992    0.05220000
opls_146-373    H    0.00000000    0.55027001    0.39418994    0.05220000
opls_146-374    H    0.00000000    0.61267005    0.33611008    0.05220000
opls_146-375    H    0.00000000    0.57413003    0.31921003    0.05220000
opls_146-376    H    0.00000000    0.63737996    0.33665997    0.05220000
opls_146-377    H    0.00000000    0.54947997    0.32000000    0.05230000
opls_146-378    H    0.00000000    0.61211999    0.41034003    0.05220000
opls_146-379    H    0.00000000    0.57491997    0.39339997    0.05220000
opls_146-380    H    0.00000000    0.84600000    0.91101992    0.05220000
opls_144-381    H    0.00000000    0.81600000    0.99991997    0.03080000
opls_144-382    H    0.00000000    0.72078000    0.28560999    0.03080000
opls_144-383    H    0.00000000    0.59535998    0.33826000    0.03080000
opls_524-384    H    0.00000000    0.72489005    0.16386004    0.03080000
opls_526-385    H    0.00000000    0.76189999    0.20173004    0.05150000
opls_526-386    H    0.00000000    0.78230003    0.18133007    0.05150000
opls_526-387    H    0.00000000    0.79461000    0.14430002    0.05220000
opls_524-388    H    0.00000000    0.75718004    0.06709995    0.03080000
opls_526-389    H    0.00000000    0.79450999    0.10338004    0.05220000
opls_524-390    H    0.00000000    0.53220996    0.32048995    0.03080000
opls_526-391    H    0.00000000    0.53284004    0.39459007    0.05150000
opls_526-392    H    0.00000000    0.51235998    0.41526996    0.05170000
opls_146-393    H    0.00000000    0.30859002    0.37491997    0.05220000
opls_146-394    H    0.00000000    0.33761000    0.43730002    0.05220000
opls_146-395    H    0.00000000    0.30308003    0.57753993    0.05220000
opls_146-396    H    0.00000000    0.25310995    0.72764005    0.05220000
opls_146-397    H    0.00000000    0.20027001    0.84944994    0.05220000
opls_146-398    H    0.00000000    0.28808997    0.43857994    0.05220000
opls_146-399    H    0.00000000    0.27820002    0.50356998    0.05150000
opls_146-400    H    0.00000000    0.26589005    0.54047999    0.05220000
opls_146-401    H    0.00000000    0.30006004    0.40131994    0.05150000
opls_146-402    H    0.00000000    0.21291003    0.81282998    0.05220000
opls_146-403    H    0.00000000    0.24076002    0.76447003    0.05150000
opls_146-404    H    0.00000000    0.21596004    0.69030998    0.05150000
opls_146-405    H    0.00000000    0.16349001    0.81117002    0.05160000
opls_146-406    H    0.00000000    0.32566001    0.47456002    0.05220000
opls_146-407    H    0.00000000    0.31530997    0.54046007    0.05220000
opls_146-408    H    0.00000000    0.17620996    0.77466993    0.05220000
opls_146-409    H    0.00000000    0.20369003    0.72726000    0.05220000
opls_146-410    H    0.00000000    0.15457998    0.83718994    0.05150000
opls_146-411    H    0.00000000    0.13669003    0.91101992    0.05220000
opls_146-412    H    0.00000000    0.05027001    0.89418994    0.05220000
opls_146-413    H    0.00000000    0.11267005    0.83611008    0.05220000
opls_146-414    H    0.00000000    0.07413003    0.81921003    0.05220000
opls_146-415    H    0.00000000    0.13737996    0.83665997    0.05230000
opls_146-416    H    0.00000000    0.04947997    0.82000000    0.05220000
opls_146-417    H    0.00000000    0.11211999    0.91034003    0.05220000
opls_146-418    H    0.00000000    0.07491997    0.89339997    0.05220000
opls_146-419    H    0.00000000    0.34600000    0.41101992    0.05220000
opls_144-420    H    0.00000000    0.31600000    0.49991997    0.03080000
opls_144-421    H    0.00000000    0.22078000    0.78560999    0.03080000
opls_144-422    H    0.00000000    0.09535998    0.83826000    0.03090000
opls_524-423    H    0.00000000    0.22489005    0.66386004    0.03080000
opls_526-424    H    0.00000000    0.26189999    0.70173004    0.05150000
opls_526-425    H    0.00000000    0.28230003    0.68133007    0.05150000
opls_526-426    H    0.00000000    0.29461000    0.64430002    0.05220000
opls_524-427    H    0.00000000    0.25718004    0.56709995    0.03080000
opls_526-428    H    0.00000000    0.29450999    0.60338004    0.05220000
opls_524-429    H    0.00000000    0.03220996    0.82048995    0.03080000
opls_526-430    H    0.00000000    0.03284004    0.89459007    0.05150000
opls_526-431    H    0.00000000    0.01235998    0.91526996    0.05150000
