#======================================================================
# Crystal Data Generated By AuToFF
#----------------------------------------------------------------------

data_AuToFF_phase_1

_cell_length_a                         43.4600
_cell_length_b                         43.4600
_cell_length_c                         3.5000
_cell_angle_alpha                      90.00
_cell_angle_beta                       90.00
_cell_angle_gamma                      120.00
_symmetry_space_group_name_H-M_alt     'P 1'
_symmetry_space_group_IT_number        1

loop_
_space_group_symop_operation_xyz
   'x, y, z'

loop_
   _atom_site_label
   _atom_site_type_symbol
   _atom_site_fract_x
   _atom_site_fract_y
   _atom_site_fract_z
   _atom_site_charge
opls_641-0    N    0.64489001    0.29910998    0.00000000    -0.54370000
opls_750-1    N    0.61042016    0.11597010    0.00000000    -0.31500000
opls_641-2    N    0.70088999    0.34577998    0.00000000    -0.54370000
opls_750-3    N    0.88403008    0.49444994    0.00000000    -0.31500000
opls_641-4    N    0.65422000    0.35511004    0.00000000    -0.54370000
opls_750-5    N    0.50554999    0.38957996    0.00000000    -0.31500000
opls_641-6    N    0.35510999    0.70089002    0.00000000    -0.54370000
opls_750-7    N    0.38957997    0.88403017    0.00000000    -0.31500000
opls_641-8    N    0.29911001    0.65422002    0.00000000    -0.54370000
opls_750-9    N    0.11596992    0.50555006    0.00000000    -0.31500000
opls_641-10    N    0.34578000    0.64488996    0.00000000    -0.54370000
opls_750-11    N    0.49445001    0.61042004    0.00000000    -0.31500000
opls_642-12    C    0.67960989    0.31115995    0.00000000    0.51960000
opls_166-13    C    0.67337996    0.25259011    0.00000000    0.25870000
opls_145-14    C    0.63652008    0.23494997    0.00000000    -0.23730000
opls_145-15    C    0.61750013    0.20021011    0.00000000    -0.20940000
opls_145-16    C    0.63314012    0.17971005    0.00000000    0.04180000
opls_145-17    C    0.66968988    0.19516992    0.00000000    -0.20940000
opls_145-18    C    0.68992007    0.23210015    0.00000000    -0.20700000
opls_142-19    C    0.60704005    0.14328996    0.00000000    0.10240000
opls_145-20    C    0.91759999    0.49615994    0.00000000    0.19450000
opls_145-21    C    0.92119995    0.46562999    0.00000000    -0.21720000
opls_145-22    C    0.95282002    0.46768007    0.00000000    -0.20940000
opls_145-23    C    0.98318004    0.49984005    0.00000000    0.08440000
opls_145-24    C    0.98034003    0.53080017    0.00000000    -0.18630000
opls_145-25    C    0.94777007    0.52870996    0.00000000    -0.21750000
opls_642-26    C    0.68884002    0.36844994    0.00000000    0.51960000
opls_166-27    C    0.74741000    0.42079009    0.00000000    0.25870000
opls_145-28    C    0.76505014    0.40157014    0.00000000    -0.23730000
opls_145-29    C    0.79979002    0.41729011    0.00000000    -0.20940000
opls_145-30    C    0.82029010    0.45343017    0.00000000    0.04180000
opls_145-31    C    0.80482998    0.47452007    0.00000000    -0.20940000
opls_145-32    C    0.76790008    0.45781995    0.00000000    -0.20700000
opls_142-33    C    0.85670999    0.46374994    0.00000000    0.10240000
opls_145-34    C    0.50384010    0.42143997    0.00000000    0.19450000
opls_145-35    C    0.53436994    0.45557006    0.00000000    -0.21720000
opls_145-36    C    0.53231992    0.48514007    0.00000000    -0.20940000
opls_145-37    C    0.50016011    0.48334000    0.00000000    0.08440000
opls_145-38    C    0.46920013    0.44954017    0.00000000    -0.18630000
opls_145-39    C    0.47129009    0.41906016    0.00000000    -0.21750000
opls_642-40    C    0.63155009    0.32039011    0.00000000    0.51960000
opls_166-41    C    0.57920995    0.32662007    0.00000000    0.25870000
opls_145-42    C    0.59843014    0.36348016    0.00000000    -0.23730000
opls_145-43    C    0.58270998    0.38250004    0.00000000    -0.20940000
opls_145-44    C    0.54656992    0.36686004    0.00000000    0.04180000
opls_145-45    C    0.52547990    0.33031002    0.00000000    -0.20940000
opls_145-46    C    0.54217985    0.31007990    0.00000000    -0.20700000
opls_142-47    C    0.53624995    0.39296010    0.00000000    0.10240000
opls_145-48    C    0.57856015    0.08240009    0.00000000    0.19450000
opls_145-49    C    0.54442989    0.07879995    0.00000000    -0.21710000
opls_145-50    C    0.51485996    0.04718012    0.00000000    -0.20940000
opls_145-51    C    0.51665986    0.01681994    0.00000000    0.08440000
opls_145-52    C    0.55045997    0.01965993    0.00000000    -0.18630000
opls_145-53    C    0.58093984    0.05222988    0.00000000    -0.21750000
opls_642-54    C    0.32039011    0.68884005    0.00000000    0.51960000
opls_166-55    C    0.32662017    0.74741016    0.00000000    0.25880000
opls_145-56    C    0.36347992    0.76505003    0.00000000    -0.23720000
opls_145-57    C    0.38250000    0.79979016    0.00000000    -0.20940000
opls_145-58    C    0.36686002    0.82029021    0.00000000    0.04180000
opls_145-59    C    0.33031012    0.80483008    0.00000000    -0.20940000
opls_145-60    C    0.31008006    0.76790012    0.00000000    -0.20700000
opls_142-61    C    0.39295995    0.85671004    0.00000000    0.10240000
opls_145-62    C    0.08240001    0.50384006    0.00000000    0.19450000
opls_145-63    C    0.07880005    0.53437001    0.00000000    -0.21720000
opls_145-64    C    0.04717998    0.53231993    0.00000000    -0.20940000
opls_145-65    C    0.01681996    0.50015995    0.00000000    0.08440000
opls_145-66    C    0.01966011    0.46920010    0.00000000    -0.18630000
opls_145-67    C    0.05222993    0.47129004    0.00000000    -0.21750000
opls_642-68    C    0.31115998    0.63155006    0.00000000    0.51960000
opls_166-69    C    0.25259013    0.57921018    0.00000000    0.25870000
opls_145-70    C    0.23494999    0.59843013    0.00000000    -0.23730000
opls_145-71    C    0.20021011    0.58271015    0.00000000    -0.20930000
opls_145-72    C    0.17971003    0.54657009    0.00000000    0.04180000
opls_145-73    C    0.19517002    0.52547993    0.00000000    -0.20940000
opls_145-74    C    0.23209992    0.54218005    0.00000000    -0.20700000
opls_142-75    C    0.14329001    0.53625006    0.00000000    0.10250000
opls_145-76    C    0.49615990    0.57856003    0.00000000    0.19460000
opls_145-77    C    0.46563006    0.54442994    0.00000000    -0.21720000
opls_145-78    C    0.46768008    0.51485993    0.00000000    -0.20940000
opls_145-79    C    0.49983989    0.51666000    0.00000000    0.08440000
opls_145-80    C    0.53080000    0.55046010    0.00000000    -0.18630000
opls_145-81    C    0.52871004    0.58094011    0.00000000    -0.21750000
opls_642-82    C    0.36845004    0.67961015    0.00000000    0.51960000
opls_166-83    C    0.42079019    0.67338019    0.00000000    0.25870000
opls_145-84    C    0.40156999    0.63652011    0.00000000    -0.23720000
opls_145-85    C    0.41729002    0.61749996    0.00000000    -0.20940000
opls_145-86    C    0.45343008    0.63313996    0.00000000    0.04180000
opls_145-87    C    0.47452010    0.66968998    0.00000000    -0.20940000
opls_145-88    C    0.45782015    0.68992010    0.00000000    -0.20700000
opls_142-89    C    0.46375018    0.60704017    0.00000000    0.10240000
opls_145-90    C    0.42143999    0.91760018    0.00000000    0.19450000
opls_145-91    C    0.45557011    0.92120005    0.00000000    -0.21720000
opls_145-92    C    0.48514017    0.95282014    0.00000000    -0.20930000
opls_145-93    C    0.48333991    0.98318006    0.00000000    0.08440000
opls_145-94    C    0.44954003    0.98034007    0.00000000    -0.18630000
opls_145-95    C    0.41906016    0.94777012    0.00000000    -0.21750000
opls_180-96    O    0.59479997    0.30546004    0.00000000    -0.27330000
opls_180-97    O    0.69453996    0.28933993    0.00000000    -0.27330000
opls_180-98    O    0.71066007    0.40520003    0.00000000    -0.27330000
opls_180-99    O    0.40520003    0.69453996    0.00000000    -0.27330000
opls_180-100    O    0.30546004    0.71066007    0.00000000    -0.27330000
opls_180-101    O    0.28933993    0.59479997    0.00000000    -0.27330000
opls_146-102    H    0.61845986    0.24415994    0.00000000    0.22190000
opls_146-103    H    0.58911995    0.18936002    0.00000000    0.09980000
opls_146-104    H    0.68215005    0.17930009    0.00000000    0.22250000
opls_146-105    H    0.71827008    0.24476014    0.00000000    0.22250000
opls_144-106    H    0.58191996    0.14030012    0.00000000    0.10810000
opls_146-107    H    0.90110019    0.43848017    0.00000000    0.22280000
opls_146-108    H    0.95208994    0.44293000    0.00000000    0.22260000
opls_146-109    H    0.00224998    0.55708993    0.00000000    0.22280000
opls_146-110    H    0.94609002    0.55244004    0.00000000    0.08100000
opls_146-111    H    0.75584004    0.37429997    0.00000000    0.22180000
opls_146-112    H    0.81064000    0.39975997    0.00000000    0.09980000
opls_146-113    H    0.82070001    0.50285009    0.00000000    0.22250000
opls_146-114    H    0.75524013    0.47351017    0.00000000    0.22250000
opls_144-115    H    0.85970008    0.44162013    0.00000000    0.10810000
opls_146-116    H    0.56152006    0.46261995    0.00000000    0.22290000
opls_146-117    H    0.55707012    0.50916002    0.00000000    0.22260000
opls_146-118    H    0.44290994    0.44515996    0.00000000    0.22280000
opls_146-119    H    0.44755998    0.39365010    0.00000000    0.08100000
opls_146-120    H    0.62570010    0.38154009    0.00000000    0.22180000
opls_146-121    H    0.60024005    0.41088001    0.00000000    0.09980000
opls_146-122    H    0.49715008    0.31785009    0.00000000    0.22250000
opls_146-123    H    0.52648992    0.28172996    0.00000000    0.22250000
opls_144-124    H    0.55838009    0.41808002    0.00000000    0.10810000
opls_146-125    H    0.53738012    0.09890014    0.00000000    0.22280000
opls_146-126    H    0.49083994    0.04790998    0.00000000    0.22260000
opls_146-127    H    0.55484008    0.99775011    0.00000000    0.22280000
opls_146-128    H    0.60635014    0.05391012    0.00000000    0.08100000
opls_146-129    H    0.38154014    0.75584006    0.00000000    0.22180000
opls_146-130    H    0.41088005    0.81063998    0.00000000    0.09980000
opls_146-131    H    0.31785009    0.82070017    0.00000000    0.22250000
opls_146-132    H    0.28173005    0.75524013    0.00000000    0.22250000
opls_144-133    H    0.41808017    0.85970015    0.00000000    0.10810000
opls_146-134    H    0.09889994    0.56152009    0.00000000    0.22280000
opls_146-135    H    0.04791006    0.55707000    0.00000000    0.22270000
opls_146-136    H    0.99775002    0.44291007    0.00000000    0.22280000
opls_146-137    H    0.05390998    0.44755996    0.00000000    0.08100000
opls_146-138    H    0.24415996    0.62570003    0.00000000    0.22180000
opls_146-139    H    0.18936000    0.60024003    0.00000000    0.09980000
opls_146-140    H    0.17930012    0.49715018    0.00000000    0.22250000
opls_146-141    H    0.24476001    0.52649010    0.00000000    0.22250000
opls_144-142    H    0.14030005    0.55838014    0.00000000    0.10810000
opls_146-143    H    0.43847994    0.53738005    0.00000000    0.22280000
opls_146-144    H    0.44292988    0.49083998    0.00000000    0.22260000
opls_146-145    H    0.55709006    0.55484004    0.00000000    0.22280000
opls_146-146    H    0.55244015    0.60635016    0.00000000    0.08100000
opls_146-147    H    0.37430004    0.61846017    0.00000000    0.22180000
opls_146-148    H    0.39975995    0.58911999    0.00000000    0.09980000
opls_146-149    H    0.50285005    0.68215018    0.00000000    0.22260000
opls_146-150    H    0.47351008    0.71827004    0.00000000    0.22250000
opls_144-151    H    0.44161991    0.58191998    0.00000000    0.10810000
opls_146-152    H    0.46262001    0.90110013    0.00000000    0.22280000
opls_146-153    H    0.50916006    0.95209002    0.00000000    0.22260000
opls_146-154    H    0.44516005    0.00225015    0.00000000    0.22280000
opls_146-155    H    0.39365000    0.94609015    0.00000000    0.08100000
