#======================================================================
# Crystal Data Generated By AuToFF
#----------------------------------------------------------------------

data_AuToFF_phase_1

_cell_length_a                         18.5500
_cell_length_b                         18.5500
_cell_length_c                         3.6000
_cell_angle_alpha                      90.00
_cell_angle_beta                       90.00
_cell_angle_gamma                      120.00
_symmetry_space_group_name_H-M_alt     'P 1'
_symmetry_space_group_IT_number        1

loop_
_space_group_symop_operation_xyz
   'x, y, z'

loop_
   _atom_site_label
   _atom_site_type_symbol
   _atom_site_fract_x
   _atom_site_fract_y
   _atom_site_fract_z
   _atom_site_charge
opls_145-0    C    0.75269015    0.37069999    0.59458056    -0.13680000
opls_700-1    C    0.71674018    0.42178008    0.58831111    0.08620000
opls_700-2    C    0.76701994    0.51087006    0.55531111    0.07390000
opls_145-3    C    0.84890981    0.54980993    0.39985000    -0.11170000
opls_145-4    C    0.89496999    0.63466019    0.35870000    -0.14480000
opls_145-5    C    0.86350990    0.68639016    0.46483889    0.22340000
opls_145-6    C    0.78343010    0.64919012    0.62156944    -0.14770000
opls_145-7    C    0.73652013    0.56457017    0.66786111    -0.11290000
opls_142-8    C    0.88540984    0.82462992    0.39728056    0.09280000
opls_700-9    C    0.94454018    0.91301027    0.38955000    0.05890000
opls_145-10    C    0.03076987    0.94607019    0.38816944    -0.15420000
opls_145-11    C    0.62930007    0.38198991    0.59458056    -0.13680000
opls_700-12    C    0.57822002    0.29495972    0.58831111    0.08620000
opls_700-13    C    0.48912996    0.25614995    0.55531111    0.07390000
opls_145-14    C    0.45018981    0.29909983    0.39985000    -0.11170000
opls_145-15    C    0.36533990    0.26030998    0.35870000    -0.14480000
opls_145-16    C    0.31361007    0.17711987    0.46483889    0.22340000
opls_145-17    C    0.35080988    0.13423971    0.62156944    -0.14770000
opls_145-18    C    0.43543007    0.17195017    0.66786111    -0.11290000
opls_142-19    C    0.17537016    0.06078020    0.39728056    0.09280000
opls_700-20    C    0.08698973    0.03152986    0.38955000    0.05890000
opls_145-21    C    0.05393018    0.08470025    0.38816944    -0.15420000
opls_145-22    C    0.61801031    0.24731011    0.59458056    -0.13670000
opls_700-23    C    0.70504034    0.28326020    0.58831111    0.08620000
opls_700-24    C    0.74385010    0.23297999    0.55531111    0.07390000
opls_145-25    C    0.70090038    0.15109024    0.39985000    -0.11170000
opls_145-26    C    0.73969012    0.10502983    0.35870000    -0.14480000
opls_145-27    C    0.82288003    0.13648997    0.46483889    0.22340000
opls_145-28    C    0.86576002    0.21657017    0.62156944    -0.14750000
opls_145-29    C    0.82805011    0.26348027    0.66786111    -0.11290000
opls_142-30    C    0.93922001    0.11458988    0.39728056    0.09280000
opls_700-31    C    0.96847009    0.05545987    0.38955000    0.05890000
opls_145-32    C    0.91530027    0.96923019    0.38816944    -0.15410000
opls_750-33    N    0.91263029    0.77265034    0.41618056    -0.26700000
opls_750-34    N    0.22735022    0.13998022    0.41618056    -0.26710000
opls_750-35    N    0.86001980    0.08737007    0.41618056    -0.26700000
opls_146-36    H    0.82070036    0.40029020    0.58483056    0.09610000
opls_146-37    H    0.87536030    0.51208016    0.29873056    0.06760000
opls_146-38    H    0.95728001    0.66223980    0.23415000    0.07170000
opls_146-39    H    0.75746985    0.68780007    0.71656111    0.06740000
opls_146-40    H    0.67506996    0.53886984    0.79923889    0.07780000
opls_144-41    H    0.81886976    0.80546998    0.39868056    0.07210000
opls_146-42    H    0.05545996    0.90327032    0.39060000    0.08710000
opls_146-43    H    0.59971012    0.42041000    0.58483056    0.09610000
opls_146-44    H    0.48791980    0.36328002    0.29873056    0.06760000
opls_146-45    H    0.33775990    0.29504002    0.23415000    0.07170000
opls_146-46    H    0.31219988    0.06966984    0.71656111    0.06740000
opls_146-47    H    0.46113014    0.13619990    0.79923889    0.07780000
opls_144-48    H    0.19453025    0.01340013    0.39868056    0.07210000
opls_146-49    H    0.09673012    0.15219017    0.39060000    0.08710000
opls_146-50    H    0.57959006    0.17929980    0.58483056    0.09610000
opls_146-51    H    0.63671991    0.12463982    0.29873056    0.06760000
opls_146-52    H    0.70496009    0.04272019    0.23415000    0.07170000
opls_146-53    H    0.93033027    0.24253008    0.71656111    0.06740000
opls_146-54    H    0.86379990    0.32493027    0.79923889    0.07780000
opls_144-55    H    0.98659998    0.18112989    0.39868056    0.07210000
opls_146-56    H    0.84781023    0.94454013    0.39060000    0.08710000
