#======================================================================
# Crystal Data Generated By AuToFF
#----------------------------------------------------------------------

data_AuToFF_phase_1

_cell_length_a                         29.5382
_cell_length_b                         29.5382
_cell_length_c                         3.5322
_cell_angle_alpha                      90.00
_cell_angle_beta                       90.00
_cell_angle_gamma                      120.00
_symmetry_space_group_name_H-M_alt     'P 1'
_symmetry_space_group_IT_number        1

loop_
_space_group_symop_operation_xyz
   'x, y, z'

loop_
   _atom_site_label
   _atom_site_type_symbol
   _atom_site_fract_x
   _atom_site_fract_y
   _atom_site_fract_z
   _atom_site_charge
opls_531-0    C    0.64225985    0.28102997    0.37824019    0.32940000
opls_142-1    C    0.53417018    0.50596013    0.29800125    0.10420000
opls_916-2    C    0.43042012    0.56508018    0.36435083    0.19140000
opls_145-3    C    0.41359004    0.51371007    0.45890946    -0.21710000
opls_145-4    C    0.44688012    0.49405004    0.43618142    -0.20890000
opls_700-5    C    0.49801993    0.52559006    0.31976955    0.05600000
opls_145-6    C    0.51493000    0.57679989    0.22222128    -0.20890000
opls_145-7    C    0.48149001    0.59635985    0.24109903    -0.21740000
opls_280-8    C    0.29548024    0.68384020    0.19052998    0.26490000
opls_145-9    C    0.27759001    0.62825014    0.23566899    -0.14100000
opls_145-10    C    0.55053015    0.43470013    0.37523073    0.19760000
opls_145-11    C    0.60455009    0.46323008    0.37980862    -0.21710000
opls_523-12    C    0.63311981    0.43818985    0.37993036    -0.20890000
opls_700-13    C    0.60845023    0.38427017    0.37822887    0.03240000
opls_523-14    C    0.55450001    0.35599001    0.37854029    -0.20900000
opls_145-15    C    0.52599017    0.38107012    0.37865919    -0.21700000
opls_142-16    C    0.40737001    0.63560995    0.31114886    0.10420000
opls_531-17    C    0.71897002    0.36122987    0.37824019    0.32940000
opls_142-18    C    0.49404023    0.02821019    0.29800125    0.10420000
opls_916-19    C    0.43492006    0.86534018    0.36435083    0.19140000
opls_145-20    C    0.48628993    0.89988011    0.45890946    -0.21710000
opls_145-21    C    0.50594993    0.95282991    0.43618142    -0.20890000
opls_700-22    C    0.47441002    0.97243014    0.31976955    0.05600000
opls_145-23    C    0.42320010    0.93813023    0.22222128    -0.20890000
opls_145-24    C    0.40364015    0.88513000    0.24109903    -0.21740000
opls_280-25    C    0.31615985    0.61164004    0.19052998    0.26490000
opls_145-26    C    0.37175013    0.64934015    0.23566899    -0.14100000
opls_145-27    C    0.56530006    0.11583010    0.37523073    0.19760000
opls_145-28    C    0.53676993    0.14131989    0.37980862    -0.21710000
opls_523-29    C    0.56181013    0.19492995    0.37993036    -0.20890000
opls_700-30    C    0.61573002    0.22417998    0.37822887    0.03240000
opls_523-31    C    0.64400992    0.19850998    0.37854029    -0.20900000
opls_145-32    C    0.61892992    0.14491985    0.37865919    -0.21700000
opls_142-33    C    0.36438984    0.77175995    0.31114886    0.10420000
opls_531-34    C    0.63877014    0.35774015    0.37824019    0.32940000
opls_142-35    C    0.97179012    0.46583008    0.29800125    0.10420000
opls_916-36    C    0.13466002    0.56958003    0.36435083    0.19140000
opls_145-37    C    0.10012022    0.58641021    0.45890946    -0.21710000
opls_145-38    C    0.04716995    0.55312005    0.43618142    -0.20890000
opls_700-39    C    0.02757025    0.50198019    0.31976955    0.05600000
opls_145-40    C    0.06186990    0.48506987    0.22222128    -0.20890000
opls_145-41    C    0.11487018    0.51851015    0.24109903    -0.21740000
opls_280-42    C    0.38836010    0.70452014    0.19052998    0.26490000
opls_145-43    C    0.35066006    0.72241010    0.23566899    -0.14100000
opls_145-44    C    0.88416999    0.44947017    0.37523073    0.19760000
opls_145-45    C    0.85867998    0.39545003    0.37980862    -0.21710000
opls_523-46    C    0.80507006    0.36688020    0.37993036    -0.20890000
opls_700-47    C    0.77582008    0.39154984    0.37822887    0.03240000
opls_523-48    C    0.80149008    0.44550001    0.37854029    -0.20900000
opls_145-49    C    0.85507991    0.47401003    0.37865919    -0.21700000
opls_142-50    C    0.22824015    0.59263011    0.31114886    0.10420000
opls_520-51    N    0.61476004    0.30564997    0.37820905    -0.43120000
opls_750-52    N    0.51921022    0.45837019    0.37925089    -0.31350000
opls_238-53    N    0.39476009    0.58375002    0.39425004    -0.26280000
opls_520-54    N    0.69434990    0.30910999    0.37820905    -0.43110000
opls_750-55    N    0.54162994    0.06084009    0.37925089    -0.31350000
opls_238-56    N    0.41625009    0.81101004    0.39425004    -0.26280000
opls_520-57    N    0.69089006    0.38524004    0.37820905    -0.43110000
opls_750-58    N    0.93916004    0.48079011    0.37925089    -0.31350000
opls_238-59    N    0.18898982    0.60523994    0.39425004    -0.26280000
opls_526-60    H    0.67460981    0.46118988    0.38344941    0.22270000
opls_526-61    H    0.53418008    0.31442999    0.37912066    0.21640000
opls_146-62    H    0.48447000    0.35859001    0.37955948    0.21640000
opls_146-63    H    0.62506020    0.50467010    0.38989865    0.22340000
opls_144-64    H    0.44705983    0.66559998    0.33312100    0.10860000
opls_910-65    H    0.35891000    0.55876021    0.51232093    0.24210000
opls_144-66    H    0.57304993    0.53185999    0.20509881    0.10860000
opls_146-67    H    0.37446992    0.48876014    0.55249986    0.21800000
opls_146-68    H    0.43267010    0.45433006    0.51311081    0.07890000
opls_146-69    H    0.55405020    0.60167008    0.12786932    0.09920000
opls_146-70    H    0.49607981    0.63569986    0.15531114    0.22340000
opls_526-71    H    0.53881011    0.21341997    0.38344941    0.22270000
opls_526-72    H    0.68556991    0.21975010    0.37912066    0.21640000
opls_146-73    H    0.64141001    0.12588020    0.37955948    0.21640000
opls_146-74    H    0.49532992    0.12039015    0.38989865    0.22340000
opls_144-75    H    0.33439998    0.78146018    0.33312100    0.10860000
opls_910-76    H    0.44123998    0.80014996    0.51232093    0.24210000
opls_144-77    H    0.46813979    0.04118983    0.20509881    0.10860000
opls_146-78    H    0.51124007    0.88571012    0.55249986    0.21790000
opls_146-79    H    0.54567007    0.97834003    0.51311081    0.07890000
opls_146-80    H    0.39833013    0.95237997    0.12786932    0.09920000
opls_146-81    H    0.36430017    0.86038021    0.15531114    0.22340000
opls_526-82    H    0.78658008    0.32539015    0.38344941    0.22270000
opls_526-83    H    0.78025001    0.46581991    0.37912066    0.21640000
opls_146-84    H    0.87412018    0.51553018    0.37955948    0.21640000
opls_146-85    H    0.87961008    0.37494014    0.38989865    0.22340000
opls_144-86    H    0.21854004    0.55294023    0.33312100    0.10860000
opls_910-87    H    0.19985021    0.64109022    0.51232093    0.24210000
opls_144-88    H    0.95880995    0.42695018    0.20509881    0.10860000
opls_146-89    H    0.11429021    0.62553013    0.55249986    0.21790000
opls_146-90    H    0.02165982    0.56732991    0.51311081    0.07890000
opls_146-91    H    0.04762001    0.44594996    0.12786932    0.09920000
opls_146-92    H    0.13962001    0.50391993    0.15531114    0.22340000
opls_281-93    O    0.30204989    0.56742999    0.09782006    -0.38500000
opls_281-94    O    0.43256991    0.73462003    0.09782006    -0.38500000
opls_281-95    O    0.26537985    0.69794999    0.09782006    -0.38500000
