#======================================================================
# Crystal Data Generated By AuToFF
#----------------------------------------------------------------------

data_AuToFF_phase_1

_cell_length_a                         19.6666
_cell_length_b                         19.6666
_cell_length_c                         3.5851
_cell_angle_alpha                      90.00
_cell_angle_beta                       90.00
_cell_angle_gamma                      120.00
_symmetry_space_group_name_H-M_alt     'P 1'
_symmetry_space_group_IT_number        1

loop_
_space_group_symop_operation_xyz
   'x, y, z'

loop_
   _atom_site_label
   _atom_site_type_symbol
   _atom_site_fract_x
   _atom_site_fract_y
   _atom_site_fract_z
   _atom_site_charge
opls_145-0    C    0.71557991    0.41650961    0.00000000    -0.06720000
opls_700-1    C    0.63137966    0.38371973    0.00000000    0.06120000
opls_700-2    C    0.56249996    0.15623969    0.00000000    0.06240000
opls_145-3    C    0.64137004    0.52263005    0.00000000    -0.09700000
opls_145-4    C    0.60658983    0.57149987    0.00000000    -0.11400000
opls_916-5    C    0.52312966    0.53848981    0.00000000    0.18270000
opls_145-6    C    0.47474995    0.45441991    0.00000000    -0.11520000
opls_145-7    C    0.50914971    0.40511972    0.00000000    -0.09740000
opls_142-8    C    0.16116008    0.59391972    0.00000000    0.06300000
opls_700-9    C    0.37397003    0.61684979    0.00000000    -0.05910000
opls_280-10    C    0.42187014    0.70651981    0.00000000    0.18500000
opls_145-11    C    0.58348990    0.29906974    0.00000000    -0.06720000
opls_700-12    C    0.61628013    0.24765996    0.00000000    0.06120000
opls_700-13    C    0.84375977    0.40625994    0.00000000    0.06240000
opls_145-14    C    0.47736996    0.11873979    0.00000000    -0.09700000
opls_145-15    C    0.42849997    0.03508970    0.00000000    -0.11400000
opls_916-16    C    0.46150984    0.98463989    0.00000000    0.18270000
opls_145-17    C    0.54557998    0.02033023    0.00000000    -0.11520000
opls_145-18    C    0.59488018    0.10403023    0.00000000    -0.09740000
opls_142-19    C    0.40607970    0.56723960    0.00000000    0.06300000
opls_700-20    C    0.38314998    0.75711993    0.00000000    -0.05910000
opls_280-21    C    0.29347975    0.71534978    0.00000000    0.18500000
opls_145-22    C    0.70092989    0.28442007    0.00000000    -0.06720000
opls_700-23    C    0.75233992    0.36861972    0.00000000    0.06120000
opls_700-24    C    0.59373997    0.43749978    0.00000000    0.06240000
opls_145-25    C    0.88126000    0.35863016    0.00000000    -0.09700000
opls_145-26    C    0.96490990    0.39340985    0.00000000    -0.11400000
opls_916-27    C    0.01535969    0.47686971    0.00000000    0.18270000
opls_145-28    C    0.97967007    0.52524986    0.00000000    -0.11520000
opls_145-29    C    0.89597011    0.49085005    0.00000000    -0.09740000
opls_142-30    C    0.43275963    0.83883951    0.00000000    0.06300000
opls_700-31    C    0.24287969    0.62602969    0.00000000    -0.05910000
opls_280-32    C    0.28464981    0.57812983    0.00000000    0.18500000
opls_238-33    N    0.49082026    0.59217005    0.00000000    -0.35950000
opls_238-34    N    0.40782951    0.89864947    0.00000000    -0.35970000
opls_238-35    N    0.10134994    0.50917990    0.00000000    -0.35950000
opls_146-36    H    0.70597993    0.55429967    0.00000000    0.06250000
opls_146-37    H    0.64541986    0.63617954    0.00000000    0.10460000
opls_146-38    H    0.41008963    0.42499962    0.00000000    0.10300000
opls_146-39    H    0.46688012    0.34167010    0.00000000    0.07210000
opls_144-40    H    0.13963960    0.63616956    0.00000000    0.06610000
opls_146-41    H    0.75283014    0.47985002    0.00000000    0.11530000
opls_910-42    H    0.53381011    0.65301983    0.00000000    0.25560000
opls_146-43    H    0.44570006    0.15167998    0.00000000    0.06250000
opls_146-44    H    0.36381975    0.00923979    0.00000000    0.10460000
opls_146-45    H    0.57500014    0.98509023    0.00000000    0.10300000
opls_146-46    H    0.65833026    0.12521005    0.00000000    0.07210000
opls_144-47    H    0.36383012    0.50346998    0.00000000    0.06610000
opls_146-48    H    0.52014996    0.27297969    0.00000000    0.11520000
opls_910-49    H    0.34697972    0.88078991    0.00000000    0.25560000
opls_146-50    H    0.84831972    0.29401977    0.00000000    0.06250000
opls_146-51    H    0.99076009    0.35458008    0.00000000    0.10460000
opls_146-52    H    0.01490994    0.58990957    0.00000000    0.10300000
opls_146-53    H    0.87479012    0.53311985    0.00000000    0.07210000
opls_144-54    H    0.49652999    0.86035987    0.00000000    0.06610000
opls_146-55    H    0.72701961    0.24716970    0.00000000    0.11520000
opls_910-56    H    0.11920988    0.46618968    0.00000000    0.25550000
opls_281-57    O    0.49502021    0.74075992    0.00000000    -0.42390000
opls_281-58    O    0.25923976    0.75425998    0.00000000    -0.42400000
opls_281-59    O    0.24574003    0.50498010    0.00000000    -0.42390000
