#======================================================================
# Crystal Data Generated By AuToFF
#----------------------------------------------------------------------

data_AuToFF_phase_1

_cell_length_a                         37.9900
_cell_length_b                         24.3300
_cell_length_c                         4.8000
_cell_angle_alpha                      90.00
_cell_angle_beta                       90.00
_cell_angle_gamma                      90.00
_symmetry_space_group_name_H-M_alt     'P 1'
_symmetry_space_group_IT_number        1

loop_
_space_group_symop_operation_xyz
   'x, y, z'

loop_
   _atom_site_label
   _atom_site_type_symbol
   _atom_site_fract_x
   _atom_site_fract_y
   _atom_site_fract_z
   _atom_site_charge
opls_700-0    C    0.46525007    0.61933005    0.50112917    0.05800000
opls_145-1    C    0.43778994    0.73366009    0.69112083    -0.13040000
opls_145-2    C    0.43570992    0.63320016    0.33751042    -0.14190000
opls_700-3    C    0.36191998    0.83500986    0.50355000    0.05830000
opls_145-4    C    0.40384996    0.60300000    0.34057917    -0.09930000
opls_145-5    C    0.35727007    0.89023017    0.41577083    -0.14960000
opls_700-6    C    0.39914004    0.55633005    0.51170000    0.05830000
opls_145-7    C    0.32369992    0.91657008    0.42023958    -0.14960000
opls_145-8    C    0.42883996    0.54130991    0.67507917    -0.12550000
opls_700-9    C    0.29287997    0.88918989    0.51297083    0.05830000
opls_145-10    C    0.46102001    0.57167982    0.66780000    -0.15020000
opls_145-11    C    0.29754988    0.83369996    0.59457917    -0.10660000
opls_700-12    C    0.36378994    0.52448993    0.51842917    0.05800000
opls_145-13    C    0.33091998    0.80749979    0.58990000    -0.10660000
opls_145-14    C    0.33133009    0.54938019    0.44288958    -0.14890000
opls_145-15    C    0.29887997    0.52011015    0.44592917    -0.10420000
opls_700-16    C    0.29681995    0.46427990    0.52688958    0.05800000
opls_145-17    C    0.32922006    0.43936005    0.60222083    -0.10440000
opls_145-18    C    0.36167992    0.46852980    0.59805000    -0.10420000
opls_700-19    C    0.26150987    0.43258981    0.53850000    0.05830000
opls_145-20    C    0.23231008    0.44503000    0.36363958    -0.12780000
opls_145-21    C    0.20001000    0.41493999    0.37747083    -0.15020000
opls_700-22    C    0.19541011    0.37118002    0.56790000    0.05390000
opls_145-23    C    0.22441011    0.35921989    0.74225000    -0.17530000
opls_145-24    C    0.25641011    0.38891985    0.72852083    -0.15180000
opls_142-25    C    0.16189997    0.33644020    0.59745000    0.01400000
opls_700-26    C    0.03439010    0.11735018    0.48107917    0.05620000
opls_700-27    C    0.03484996    0.24439992    0.49270000    0.05800000
opls_145-28    C    0.04181995    0.07252980    0.66078958    -0.12600000
opls_145-29    C    0.07470992    0.04400986    0.65222917    -0.15210000
opls_145-30    C    0.10153988    0.05891985    0.46047083    0.16720000
opls_145-31    C    0.09342011    0.10214016    0.27616042    -0.21790000
opls_145-32    C    0.06066991    0.12990012    0.28552083    -0.13970000
opls_145-33    C    0.06556989    0.22990999    0.64308958    -0.14190000
opls_145-34    C    0.09715004    0.26099014    0.63458958    -0.19730000
opls_145-35    C    0.10001000    0.30930004    0.47288958    0.16720000
opls_145-36    C    0.06956989    0.32447020    0.32157083    -0.15070000
opls_145-37    C    0.03781995    0.29321989    0.33291042    -0.14910000
opls_700-38    C    0.25643011    0.91754994    0.52963958    0.05840000
opls_145-39    C    0.24627007    0.96191985    0.35410000    -0.12780000
opls_145-40    C    0.21223006    0.98679984    0.37152083    -0.14960000
opls_700-41    C    0.18682996    0.96863995    0.56648958    0.05390000
opls_145-42    C    0.19713003    0.92490999    0.74202917    -0.12730000
opls_145-43    C    0.23080995    0.90018002    0.72477917    -0.19730000
opls_142-44    C    0.14986997    0.99321989    0.60007083    0.01390000
opls_700-45    C    0.46544012    0.74651007    0.50812917    0.05620000
opls_145-46    C    0.45927007    0.79200986    0.33032917    -0.15010000
opls_145-47    C    0.42649013    0.82085984    0.32886042    -0.12550000
opls_700-48    C    0.39825007    0.80606001    0.50795000    0.05830000
opls_145-49    C    0.40524006    0.76202014    0.69227917    -0.12730000
opls_700-50    C    0.53474993    0.61933005    0.49887083    0.05800000
opls_145-51    C    0.56221006    0.73366009    0.30887917    -0.13040000
opls_145-52    C    0.56429008    0.63320016    0.66248958    -0.14190000
opls_700-53    C    0.63808002    0.83500986    0.49645000    0.05830000
opls_145-54    C    0.59615004    0.60300000    0.65942083    -0.09930000
opls_145-55    C    0.64272993    0.89023017    0.58422917    -0.14960000
opls_700-56    C    0.60085996    0.55633005    0.48830000    0.05830000
opls_145-57    C    0.67630008    0.91657008    0.57976042    -0.14960000
opls_145-58    C    0.57116004    0.54130991    0.32492083    -0.12550000
opls_700-59    C    0.70712003    0.88918989    0.48702917    0.05830000
opls_145-60    C    0.53897999    0.57167982    0.33220000    -0.15020000
opls_145-61    C    0.70245012    0.83369996    0.40542083    -0.10660000
opls_700-62    C    0.63621006    0.52448993    0.48157083    0.05800000
opls_145-63    C    0.66908002    0.80749979    0.41010000    -0.10660000
opls_145-64    C    0.66866991    0.54938019    0.55711042    -0.14890000
opls_145-65    C    0.70112003    0.52011015    0.55407083    -0.10420000
opls_700-66    C    0.70318005    0.46427990    0.47311042    0.05800000
opls_145-67    C    0.67077994    0.43936005    0.39777917    -0.10440000
opls_145-68    C    0.63832008    0.46852980    0.40195000    -0.10420000
opls_700-69    C    0.73849013    0.43258981    0.46150000    0.05830000
opls_145-70    C    0.76768992    0.44503000    0.63636042    -0.12780000
opls_145-71    C    0.79999000    0.41493999    0.62252917    -0.15020000
opls_700-72    C    0.80458989    0.37118002    0.43210000    0.05390000
opls_145-73    C    0.77558989    0.35921989    0.25775000    -0.17530000
opls_145-74    C    0.74358989    0.38891985    0.27147917    -0.15180000
opls_142-75    C    0.83810003    0.33644020    0.40255000    0.01400000
opls_700-76    C    0.96560990    0.11735018    0.51892083    0.05620000
opls_700-77    C    0.96515004    0.24439992    0.50730000    0.05800000
opls_145-78    C    0.95818005    0.07252980    0.33921042    -0.12600000
opls_145-79    C    0.92529008    0.04400986    0.34777083    -0.15200000
opls_145-80    C    0.89846012    0.05891985    0.53952917    0.16730000
opls_145-81    C    0.90657989    0.10214016    0.72383958    -0.21790000
opls_145-82    C    0.93933009    0.12990012    0.71447917    -0.13970000
opls_145-83    C    0.93443011    0.22990999    0.35691042    -0.14190000
opls_145-84    C    0.90284996    0.26099014    0.36541042    -0.19730000
opls_145-85    C    0.89999000    0.30930004    0.52711042    0.16720000
opls_145-86    C    0.93043011    0.32447020    0.67842917    -0.15070000
opls_145-87    C    0.96218005    0.29321989    0.66708958    -0.14910000
opls_700-88    C    0.74356989    0.91754994    0.47036042    0.05840000
opls_145-89    C    0.75372993    0.96191985    0.64590000    -0.12780000
opls_145-90    C    0.78776994    0.98679984    0.62847917    -0.14960000
opls_700-91    C    0.81317004    0.96863995    0.43351042    0.05390000
opls_145-92    C    0.80286997    0.92490999    0.25797083    -0.12730000
opls_145-93    C    0.76919005    0.90018002    0.27522083    -0.19730000
opls_142-94    C    0.85013003    0.99321989    0.39992917    0.01390000
opls_700-95    C    0.53455988    0.74651007    0.49187083    0.05620000
opls_145-96    C    0.54072993    0.79200986    0.66967083    -0.15010000
opls_145-97    C    0.57350987    0.82085984    0.67113958    -0.12540000
opls_700-98    C    0.60174993    0.80606001    0.49205000    0.05840000
opls_145-99    C    0.59475994    0.76202014    0.30772083    -0.12730000
opls_700-100    C    0.00000000    0.15138019    0.50000000    -0.03410000
opls_700-101    C    0.00000000    0.21009001    0.50000000    -0.03400000
opls_700-102    C    0.50000000    0.71238019    0.50000000    -0.03360000
opls_700-103    C    0.50000000    0.65360008    0.50000000    -0.03400000
opls_146-104    H    0.43654988    0.66945006    0.21498958    0.22030000
opls_146-105    H    0.38286997    0.61679984    0.20542083    0.10770000
opls_146-106    H    0.42726007    0.50648007    0.81441042    0.10810000
opls_146-107    H    0.48251987    0.55824990    0.79837917    0.10770000
opls_146-108    H    0.33053988    0.59232018    0.38537917    0.10810000
opls_146-109    H    0.27515004    0.54206001    0.38998958    0.10760000
opls_146-110    H    0.32984996    0.39645993    0.66102917    0.10840000
opls_146-111    H    0.38533009    0.44636005    0.65352083    0.10810000
opls_146-112    H    0.23451987    0.47754007    0.21087083    0.10450000
opls_146-113    H    0.17876994    0.42579984    0.23757083    0.10500000
opls_146-114    H    0.22231008    0.32642992    0.89402083    0.10070000
opls_146-115    H    0.27705001    0.37793013    0.87342083    0.10760000
opls_144-116    H    0.16297999    0.30470982    0.75467917    0.10810000
opls_146-117    H    0.02249987    0.06038019    0.81443958    0.10760000
opls_146-118    H    0.07892998    0.01093013    0.79870000    0.10820000
opls_146-119    H    0.11280995    0.11502014    0.12430000    0.10340000
opls_146-120    H    0.05599000    0.16350021    0.14828958    0.07840000
opls_146-121    H    0.06615004    0.19270982    0.75921042    0.21340000
opls_146-122    H    0.11934009    0.24581011    0.75220000    0.10550000
opls_146-123    H    0.07033009    0.36094986    0.19253958    0.10340000
opls_146-124    H    0.01553988    0.30720016    0.21238958    0.10770000
opls_146-125    H    0.26440011    0.97699014    0.19797917    0.10700000
opls_146-126    H    0.20580995    0.02012988    0.23097083    0.10340000
opls_146-127    H    0.17890998    0.90966995    0.89747083    0.10310000
opls_146-128    H    0.23684996    0.86773983    0.87126042    0.10910000
opls_144-129    H    0.13389997    0.97638019    0.76590000    0.10690000
opls_146-130    H    0.47950987    0.80450021    0.18542083    0.10350000
opls_146-131    H    0.42312003    0.85393999    0.18072917    0.10840000
opls_146-132    H    0.38555988    0.74897000    0.84092917    0.10810000
opls_146-133    H    0.44106002    0.69927990    0.82472917    0.22030000
opls_146-134    H    0.37978994    0.91397986    0.34850000    0.10760000
opls_146-135    H    0.32219005    0.95915002    0.35631042    0.10740000
opls_146-136    H    0.27514004    0.80948993    0.65957917    0.10810000
opls_146-137    H    0.33204001    0.76476983    0.65122917    0.10710000
opls_146-138    H    0.56345012    0.66945006    0.78501042    0.22030000
opls_146-139    H    0.61713003    0.61679984    0.79457917    0.10770000
opls_146-140    H    0.57273993    0.50648007    0.18558958    0.10810000
opls_146-141    H    0.51748013    0.55824990    0.20162083    0.10770000
opls_146-142    H    0.66946012    0.59232018    0.61462083    0.10810000
opls_146-143    H    0.72484996    0.54206001    0.61001042    0.10760000
opls_146-144    H    0.67015004    0.39645993    0.33897083    0.10830000
opls_146-145    H    0.61466991    0.44636005    0.34647917    0.10810000
opls_146-146    H    0.76548013    0.47754007    0.78912917    0.10450000
opls_146-147    H    0.82123006    0.42579984    0.76242917    0.10500000
opls_146-148    H    0.77768992    0.32642992    0.10597917    0.10070000
opls_146-149    H    0.72294999    0.37793013    0.12657917    0.10760000
opls_144-150    H    0.83702001    0.30470982    0.24532083    0.10810000
opls_146-151    H    0.97749987    0.06038019    0.18556042    0.10760000
opls_146-152    H    0.92107002    0.01093013    0.20130000    0.10810000
opls_146-153    H    0.88719005    0.11502014    0.87570000    0.10340000
opls_146-154    H    0.94401000    0.16350021    0.85171042    0.07840000
opls_146-155    H    0.93384996    0.19270982    0.24078958    0.21340000
opls_146-156    H    0.88065991    0.24581011    0.24780000    0.10550000
opls_146-157    H    0.92966991    0.36094986    0.80746042    0.10340000
opls_146-158    H    0.98446012    0.30720016    0.78761042    0.10770000
opls_146-159    H    0.73559989    0.97699014    0.80202083    0.10700000
opls_146-160    H    0.79419005    0.02012988    0.76902917    0.10340000
opls_146-161    H    0.82109002    0.90966995    0.10252917    0.10310000
opls_146-162    H    0.76315004    0.86773983    0.12873958    0.10920000
opls_144-163    H    0.86610003    0.97638019    0.23410000    0.10690000
opls_146-164    H    0.52049013    0.80450021    0.81457917    0.10350000
opls_146-165    H    0.57687997    0.85393999    0.81927083    0.10830000
opls_146-166    H    0.61444012    0.74897000    0.15907083    0.10810000
opls_146-167    H    0.55893998    0.69927990    0.17527083    0.22030000
opls_146-168    H    0.62021006    0.91397986    0.65150000    0.10760000
opls_146-169    H    0.67780995    0.95915002    0.64368958    0.10740000
opls_146-170    H    0.72485996    0.80948993    0.34042083    0.10810000
opls_146-171    H    0.66795999    0.76476983    0.34877083    0.10710000
opls_750-172    N    0.13260990    0.34245006    0.45188958    -0.25590000
opls_750-173    N    0.13658989    0.03269996    0.44366042    -0.26410000
opls_750-174    N    0.86739010    0.34245006    0.54811042    -0.25590000
opls_750-175    N    0.86341011    0.03269996    0.55633958    -0.26420000
