#======================================================================
# Crystal Data Generated By AuToFF
#----------------------------------------------------------------------

data_AuToFF_phase_1

_cell_length_a                         15.3949
_cell_length_b                         15.3789
_cell_length_c                         6.5226
_cell_angle_alpha                      90.00
_cell_angle_beta                       90.00
_cell_angle_gamma                      59.84
_symmetry_space_group_name_H-M_alt     'P 1'
_symmetry_space_group_IT_number        1

loop_
_space_group_symop_operation_xyz
   'x, y, z'

loop_
   _atom_site_label
   _atom_site_type_symbol
   _atom_site_fract_x
   _atom_site_fract_y
   _atom_site_fract_z
   _atom_site_charge
opls_700-0    C    0.34414993    0.13509009    0.00001073    -0.08690000
opls_231-1    C    0.41419987    0.17023982    0.00003066    0.23640000
opls_700-2    C    0.38148013    0.27520018    0.99992028    -0.07830000
opls_231-3    C    0.27623983    0.34527027    0.99978076    0.37720000
opls_700-4    C    0.20376988    0.31325061    0.99975010    -0.07630000
opls_231-5    C    0.23933024    0.20796010    0.99986968    0.30340000
opls_142-6    C    0.45947047    0.30300004    0.99994941    0.07550000
opls_142-7    C    0.37213975    0.02906031    0.00009045    0.06960000
opls_142-8    C    0.09758018    0.39168058    0.99954926    0.06960000
opls_141-9    C    0.48907963    0.51644038    0.00005059    0.52630000
opls_700-10    C    0.57155980    0.54175017    0.00007052    -0.02560000
opls_145-11    C    0.54068020    0.64488979    0.00017938    -0.05250000
opls_145-12    C    0.67484029    0.47080018    0.99998927    -0.05250000
opls_700-13    C    0.61139976    0.67712003    0.00021004    -0.02670000
opls_700-14    C    0.74706972    0.50132024    0.00001993    -0.02670000
opls_145-15    C    0.71438011    0.60452002    0.00015025    -0.05750000
opls_141-16    C    0.85536012    0.41926008    0.99998927    0.53020000
opls_141-17    C    0.58590016    0.78503974    0.00030969    0.53050000
opls_700-18    C    0.23418015    0.35730998    0.49975930    -0.10990000
opls_231-19    C    0.30404011    0.39251988    0.49980989    0.37980000
opls_700-20    C    0.27165997    0.49725010    0.49973937    -0.07830000
opls_231-21    C    0.16635045    0.56732997    0.49955999    0.40700000
opls_700-22    C    0.09381995    0.53515012    0.49952013    -0.07790000
opls_231-23    C    0.12945999    0.42983028    0.49963052    0.26770000
opls_142-24    C    0.34964036    0.52521992    0.49984975    0.06960000
opls_142-25    C    0.26180034    0.25135014    0.49984975    0.07540000
opls_142-26    C    0.98774993    0.61316044    0.49938062    0.06960000
opls_141-27    C    0.37862028    0.73907014    0.50015025    0.52950000
opls_700-28    C    0.46153991    0.76405052    0.50019931    -0.02600000
opls_145-29    C    0.43091009    0.86718037    0.50024070    -0.05260000
opls_145-30    C    0.56483004    0.69319003    0.50017018    -0.05210000
opls_700-31    C    0.50143973    0.89965051    0.50026983    -0.02590000
opls_700-32    C    0.63697989    0.72396052    0.50017938    -0.02550000
opls_145-33    C    0.60446015    0.82722047    0.50026063    -0.05680000
opls_141-34    C    0.74514028    0.64198985    0.50013032    0.53120000
opls_141-35    C    0.47555000    0.00784021    0.50026983    0.53020000
opls_144-36    H    0.54212043    0.24199001    0.99994941    0.03110000
opls_144-37    H    0.31133008    0.00744990    0.00001073    0.03100000
opls_144-38    H    0.07574038    0.47434014    0.99919051    0.03110000
opls_146-39    H    0.45723990    0.70356994    0.00024990    0.05260000
opls_146-40    H    0.70130049    0.38698998    0.99990035    0.05270000
opls_146-41    H    0.77293987    0.62915973    0.00021004    0.05270000
opls_144-42    H    0.43232008    0.46429036    0.49982982    0.03110000
opls_144-43    H    0.20076991    0.23003980    0.49977003    0.03110000
opls_144-44    H    0.96840974    0.69510028    0.49896054    0.03110000
opls_146-45    H    0.34751959    0.92603048    0.50024990    0.05270000
opls_146-46    H    0.59137995    0.60936027    0.50013951    0.05270000
opls_146-47    H    0.66288979    0.85203014    0.50032042    0.05270000
opls_750-48    N    0.43768000    0.39630047    0.99998007    -0.11210000
opls_750-49    N    0.46548006    0.95713038    0.00024990    -0.11060000
opls_750-50    N    0.51409027    0.41658049    0.99998927    -0.20360000
opls_750-51    N    0.48610009    0.86018020    0.00024990    -0.20350000
opls_750-52    N    0.02637020    0.36984003    0.99977003    -0.00220000
opls_750-53    N    0.92930968    0.44555057    0.99959065    -0.20360000
opls_750-54    N    0.32771010    0.61848050    0.49996934    -0.00720000
opls_750-55    N    0.35502016    0.17948037    0.50001993    -0.11180000
opls_750-56    N    0.40356039    0.63928996    0.50007052    -0.20250000
opls_750-57    N    0.37544008    0.08267008    0.50007972    -0.20350000
opls_750-58    N    0.91636024    0.59134020    0.49971944    -0.10840000
opls_750-59    N    0.81917995    0.66768020    0.49961978    -0.20290000
opls_272-60    O    0.40003998    0.58400009    0.00007972    -0.34160000
opls_272-61    O    0.87850963    0.32994029    0.00034036    -0.34390000
opls_272-62    O    0.65342019    0.80652004    0.00045994    -0.35310000
opls_272-63    O    0.23743995    0.44658013    0.99969031    -0.22510000
opls_272-64    O    0.51475012    0.10804003    0.00017018    -0.21750000
opls_272-65    O    0.17702005    0.16927042    0.99984975    -0.22330000
opls_272-66    O    0.28989036    0.80709988    0.50017018    -0.35390000
opls_272-67    O    0.76843035    0.55223988    0.50051973    -0.35260000
opls_272-68    O    0.54216996    0.03017034    0.50042928    -0.34110000
opls_272-69    O    0.12760015    0.66827057    0.49946034    -0.22130000
opls_272-70    O    0.40522031    0.32958006    0.49994941    -0.22250000
opls_272-71    O    0.06734013    0.39095033    0.49961058    -0.22550000
