#======================================================================
# Crystal Data Generated By AuToFF
#----------------------------------------------------------------------

data_AuToFF_phase_1

_cell_length_a                         27.7981
_cell_length_b                         27.7981
_cell_length_c                         6.8036
_cell_angle_alpha                      90.00
_cell_angle_beta                       90.00
_cell_angle_gamma                      120.00
_symmetry_space_group_name_H-M_alt     'P 1'
_symmetry_space_group_IT_number        1

loop_
_space_group_symop_operation_xyz
   'x, y, z'

loop_
   _atom_site_label
   _atom_site_type_symbol
   _atom_site_fract_x
   _atom_site_fract_y
   _atom_site_fract_z
   _atom_site_charge
opls_145-0    C    0.94863994    0.22723984    0.96803016    -0.20030000
opls_507-1    C    0.92423025    0.26110021    0.92924040    0.18170000
opls_637-2    C    0.87016017    0.24152006    0.95499001    -0.02660000
opls_145-3    C    0.82941004    0.19047008    0.01754071    -0.19980000
opls_507-4    C    0.85381993    0.15661012    0.05649950    0.18160000
opls_637-5    C    0.90788976    0.17619983    0.03067935    -0.02660000
opls_634-6    C    0.86200991    0.08484015    0.14019049    0.16860000
opls_634-7    C    0.91613000    0.33297984    0.84629020    0.16860000
opls_142-8    C    0.83680985    0.02560994    0.19916956    -0.13280000
opls_145-9    C    0.37037008    0.75015016    0.98984067    -0.19980000
opls_507-10    C    0.33664996    0.69195011    0.94952966    0.18170000
opls_637-11    C    0.35631010    0.65749988    0.97445029    -0.02670000
opls_145-12    C    0.40732987    0.66777991    0.03730966    -0.20220000
opls_507-13    C    0.44107003    0.72599990    0.07737962    0.18180000
opls_637-14    C    0.42140995    0.76044016    0.05247957    -0.02670000
opls_634-15    C    0.51281005    0.80592020    0.16153066    0.16860000
opls_634-16    C    0.26506010    0.61210998    0.86358986    0.16860000
opls_142-17    C    0.57225023    0.84005016    0.21789935    -0.13280000
opls_700-18    C    0.02815009    0.57268008    0.71419984    0.10020000
opls_145-19    C    0.99832981    0.51477993    0.71132048    -0.16890000
opls_700-20    C    0.02606014    0.48456999    0.71479070    0.09970000
opls_145-21    C    0.08394987    0.51263985    0.71740990    -0.17140000
opls_700-22    C    0.11415995    0.57056990    0.72042007    0.09970000
opls_145-23    C    0.08610021    0.60040019    0.71673967    -0.16890000
opls_142-24    C    0.99553015    0.42293010    0.73644982    -0.11200000
opls_142-25    C    0.17562995    0.60168997    0.74773061    -0.11200000
opls_142-26    C    0.99690009    0.60311018    0.73526956    -0.11200000
opls_142-27    C    0.94147986    0.39236001    0.78896026    -0.13280000
opls_142-28    C    0.20593001    0.57815988    0.80323064    -0.13280000
opls_142-29    C    0.78312999    0.99532024    0.25615997    -0.11200000
opls_700-30    C    0.75274985    0.93378004    0.28175966    0.09980000
opls_145-31    C    0.69487995    0.90576999    0.28785055    -0.16260000
opls_700-32    C    0.66462003    0.84781003    0.28894997    0.09980000
opls_145-33    C    0.69264010    0.81792990    0.28784026    -0.16890000
opls_700-34    C    0.75055008    0.84562010    0.28181992    0.09980000
opls_145-35    C    0.78041984    0.90350987    0.28079987    -0.17140000
opls_142-36    C    0.60294991    0.81670991    0.27045976    -0.11200000
opls_142-37    C    0.02017983    0.65705001    0.78889999    -0.13280000
opls_634-38    C    0.98603005    0.68227987    0.84593010    0.16860000
opls_637-39    C    0.94045008    0.72813001    0.95470927    -0.02670000
opls_507-40    C    0.90602000    0.67402984    0.92933006    0.18160000
opls_145-41    C    0.93010012    0.76885011    0.01724969    -0.20030000
opls_507-42    C    0.87186994    0.74436007    0.05678023    0.18170000
opls_637-43    C    0.83742007    0.69025989    0.03140984    -0.02660000
opls_145-44    C    0.84777018    0.64955018    0.96867982    -0.19980000
opls_634-45    C    0.79195018    0.73611004    0.14142954    0.16860000
opls_142-46    C    0.75798988    0.76135983    0.20094068    -0.13280000
opls_142-47    C    0.78156984    0.81519000    0.25619966    -0.11020000
opls_145-48    C    0.94863994    0.22723984    0.46803016    -0.20030000
opls_507-49    C    0.92423025    0.26110021    0.42924040    0.18170000
opls_637-50    C    0.87016017    0.24152006    0.45499001    -0.02660000
opls_145-51    C    0.82941004    0.19047008    0.51754071    -0.19980000
opls_507-52    C    0.85381993    0.15661012    0.55649950    0.18160000
opls_637-53    C    0.90788976    0.17619983    0.53067935    -0.02660000
opls_634-54    C    0.86200991    0.08484015    0.64019049    0.16860000
opls_634-55    C    0.91613000    0.33297984    0.34629020    0.16860000
opls_142-56    C    0.83680985    0.02560994    0.69916956    -0.13280000
opls_145-57    C    0.37037008    0.75015016    0.48984067    -0.19980000
opls_507-58    C    0.33664996    0.69195011    0.44952966    0.18160000
opls_637-59    C    0.35631010    0.65749988    0.47445029    -0.02670000
opls_145-60    C    0.40732987    0.66777991    0.53730966    -0.20220000
opls_507-61    C    0.44107003    0.72599990    0.57737962    0.18180000
opls_637-62    C    0.42140995    0.76044016    0.55247957    -0.02670000
opls_634-63    C    0.51281005    0.80592020    0.66153066    0.16860000
opls_634-64    C    0.26506010    0.61210998    0.36358986    0.16860000
opls_142-65    C    0.57225023    0.84005016    0.71789935    -0.13280000
opls_700-66    C    0.02815009    0.57268008    0.21419984    0.10020000
opls_145-67    C    0.99832981    0.51477993    0.21132048    -0.16890000
opls_700-68    C    0.02606014    0.48456999    0.21479070    0.09970000
opls_145-69    C    0.08394987    0.51263985    0.21740990    -0.17130000
opls_700-70    C    0.11415995    0.57056990    0.22042007    0.09970000
opls_145-71    C    0.08610021    0.60040019    0.21673967    -0.16880000
opls_142-72    C    0.99553015    0.42293010    0.23644982    -0.11200000
opls_142-73    C    0.17562995    0.60168997    0.24773061    -0.11200000
opls_142-74    C    0.99690009    0.60311018    0.23526956    -0.11200000
opls_142-75    C    0.94147986    0.39236001    0.28896026    -0.13280000
opls_142-76    C    0.20593001    0.57815988    0.30323064    -0.13280000
opls_142-77    C    0.78312999    0.99532024    0.75615997    -0.11200000
opls_700-78    C    0.75274985    0.93378004    0.78175966    0.09980000
opls_145-79    C    0.69487995    0.90576999    0.78785055    -0.16260000
opls_700-80    C    0.66462003    0.84781003    0.78894997    0.09980000
opls_145-81    C    0.69264010    0.81792990    0.78784026    -0.16890000
opls_700-82    C    0.75055008    0.84562010    0.78181992    0.09980000
opls_145-83    C    0.78041984    0.90350987    0.78079987    -0.17140000
opls_142-84    C    0.60294991    0.81670991    0.77045976    -0.11200000
opls_142-85    C    0.02017983    0.65705001    0.28889999    -0.13280000
opls_634-86    C    0.98603005    0.68227987    0.34593010    0.16860000
opls_637-87    C    0.94045008    0.72813001    0.45470927    -0.02660000
opls_507-88    C    0.90602000    0.67402984    0.42933006    0.18160000
opls_145-89    C    0.93010012    0.76885011    0.51724969    -0.20020000
opls_507-90    C    0.87186994    0.74436007    0.55678023    0.18180000
opls_637-91    C    0.83742007    0.69025989    0.53140984    -0.02660000
opls_145-92    C    0.84777018    0.64955018    0.46867982    -0.19980000
opls_634-93    C    0.79195018    0.73611004    0.64142954    0.16870000
opls_142-94    C    0.75798988    0.76135983    0.70094068    -0.13280000
opls_142-95    C    0.78156984    0.81519000    0.75619966    -0.11020000
opls_635-96    N    0.82713995    0.10365018    0.12104033    -0.29550000
opls_635-97    N    0.95094990    0.31410999    0.86524046    -0.29540000
opls_635-98    N    0.49406988    0.75228983    0.14157946    -0.29510000
opls_635-99    N    0.28375988    0.66572000    0.88420983    -0.29550000
opls_635-100    N    0.93237024    0.64737022    0.86528015    -0.29540000
opls_635-101    N    0.84559011    0.77101013    0.12160033    -0.29510000
opls_635-102    N    0.82713995    0.10365018    0.62104033    -0.29550000
opls_635-103    N    0.95094990    0.31410999    0.36524046    -0.29550000
opls_635-104    N    0.49406988    0.75228983    0.64157946    -0.29510000
opls_635-105    N    0.28375988    0.66572000    0.38420983    -0.29550000
opls_635-106    N    0.93237024    0.64737022    0.36528015    -0.29540000
opls_635-107    N    0.84559011    0.77101013    0.62160033    -0.29510000
opls_633-108    S    0.93404015    0.13384019    0.07720031    0.04880000
opls_633-109    S    0.84406003    0.28393992    0.90886002    0.04890000
opls_633-110    S    0.46370008    0.82889989    0.09968987    0.04880000
opls_633-111    S    0.31411005    0.58908002    0.92607002    0.04890000
opls_633-112    S    0.00895001    0.75433022    0.90816039    0.04880000
opls_633-113    S    0.76895991    0.66406011    0.07874949    0.04880000
opls_633-114    S    0.93404015    0.13384019    0.57720031    0.04880000
opls_633-115    S    0.84406003    0.28393992    0.40886002    0.04890000
opls_633-116    S    0.46370008    0.82889989    0.59968987    0.04880000
opls_633-117    S    0.31411005    0.58908002    0.42607002    0.04890000
opls_633-118    S    0.00895001    0.75433022    0.40816039    0.04880000
opls_633-119    S    0.76895991    0.66406011    0.57874949    0.04880000
opls_146-120    H    0.99280987    0.24141995    0.94965019    0.11060000
opls_146-121    H    0.78524011    0.17628997    0.03606032    0.09710000
opls_144-122    H    0.86396980    0.00841992    0.17808954    0.11760000
opls_146-123    H    0.35614006    0.78012001    0.97202951    0.09710000
opls_146-124    H    0.42160007    0.63782999    0.05481951    0.09710000
opls_144-125    H    0.58931012    0.88437999    0.19655036    0.11570000
opls_146-126    H    0.95292010    0.49351994    0.71519931    0.10590000
opls_146-127    H    0.10513020    0.48847007    0.72616997    0.10590000
opls_146-128    H    0.11022023    0.64576017    0.72507055    0.10590000
opls_144-129    H    0.02166985    0.40403990    0.72456053    0.11130000
opls_144-130    H    0.19458004    0.64672014    0.73618966    0.11030000
opls_144-131    H    0.95191986    0.57695982    0.72171938    0.11100000
opls_144-132    H    0.91417992    0.40944992    0.80844994    0.11760000
opls_144-133    H    0.18879982    0.53374988    0.82192957    0.11790000
opls_144-134    H    0.75714008    0.01432010    0.27022018    0.11080000
opls_146-135    H    0.67365019    0.92994019    0.28278999    0.11050000
opls_146-136    H    0.66844011    0.77252007    0.28283997    0.11830000
opls_146-137    H    0.82573016    0.92465022    0.26994973    0.10730000
opls_144-138    H    0.58410013    0.77173000    0.28412017    0.11100000
opls_144-139    H    0.06451001    0.68436013    0.80969928    0.11750000
opls_146-140    H    0.96005997    0.81303995    0.03546946    0.09710000
opls_146-141    H    0.81781990    0.60534995    0.95070992    0.09710000
opls_144-142    H    0.71357999    0.73417017    0.18152008    0.11760000
opls_144-143    H    0.82659987    0.84122987    0.26808013    0.11100000
opls_146-144    H    0.99280987    0.24141995    0.44965019    0.11060000
opls_146-145    H    0.78524011    0.17628997    0.53606032    0.09720000
opls_144-146    H    0.86396980    0.00841992    0.67808954    0.11760000
opls_146-147    H    0.35614006    0.78012001    0.47202951    0.09710000
opls_146-148    H    0.42160007    0.63782999    0.55481951    0.09710000
opls_144-149    H    0.58931012    0.88437999    0.69655036    0.11560000
opls_146-150    H    0.95292010    0.49351994    0.21519931    0.10590000
opls_146-151    H    0.10513020    0.48847007    0.22616997    0.10590000
opls_146-152    H    0.11022023    0.64576017    0.22507055    0.10600000
opls_144-153    H    0.02166985    0.40403990    0.22456053    0.11130000
opls_144-154    H    0.19458004    0.64672014    0.23618966    0.11030000
opls_144-155    H    0.95191986    0.57695982    0.22171938    0.11100000
opls_144-156    H    0.91417992    0.40944992    0.30844994    0.11760000
opls_144-157    H    0.18879982    0.53374988    0.32192957    0.11790000
opls_144-158    H    0.75714008    0.01432010    0.77022018    0.11080000
opls_146-159    H    0.67365019    0.92994019    0.78278999    0.11050000
opls_146-160    H    0.66844011    0.77252007    0.78283997    0.11840000
opls_146-161    H    0.82573016    0.92465022    0.76994973    0.10730000
opls_144-162    H    0.58410013    0.77173000    0.78412017    0.11100000
opls_144-163    H    0.06451001    0.68436013    0.30969928    0.11750000
opls_146-164    H    0.96005997    0.81303995    0.53546946    0.09710000
opls_146-165    H    0.81781990    0.60534995    0.45070992    0.09710000
opls_144-166    H    0.71357999    0.73417017    0.68152008    0.11760000
opls_144-167    H    0.82659987    0.84122987    0.76808013    0.11100000
