#======================================================================
# Crystal Data Generated By AuToFF
#----------------------------------------------------------------------

data_AuToFF_phase_1

_cell_length_a                         40.9350
_cell_length_b                         40.9350
_cell_length_c                         3.2570
_cell_angle_alpha                      90.00
_cell_angle_beta                       90.00
_cell_angle_gamma                      120.00
_symmetry_space_group_name_H-M_alt     'P 1'
_symmetry_space_group_IT_number        1

loop_
_space_group_symop_operation_xyz
   'x, y, z'

loop_
   _atom_site_label
   _atom_site_type_symbol
   _atom_site_fract_x
   _atom_site_fract_y
   _atom_site_fract_z
   _atom_site_charge
opls_146-0    H    0.03684000    0.57102995    0.00000000    0.11380000
opls_146-1    H    0.42896993    0.46580989    0.00000000    0.11380000
opls_146-2    H    0.53418993    0.96315988    0.00000000    0.11380000
opls_146-3    H    0.96316000    0.42897005    0.00000000    0.11380000
opls_146-4    H    0.57103007    0.53419011    0.00000000    0.11390000
opls_146-5    H    0.46581007    0.03684012    0.00000000    0.11380000
opls_146-6    H    0.57103005    0.03684012    0.00000000    0.11380000
opls_146-7    H    0.46581005    0.42897005    0.00000000    0.11380000
opls_146-8    H    0.96316004    0.53419011    0.00000000    0.11380000
opls_146-9    H    0.42896995    0.96315988    0.00000000    0.11380000
opls_146-10    H    0.53418995    0.57102995    0.00000000    0.11380000
opls_146-11    H    0.03683996    0.46580989    0.00000000    0.11380000
opls_146-12    H    0.12810006    0.64343011    0.00000000    0.11480000
opls_146-13    H    0.35656994    0.48466986    0.00000000    0.11480000
opls_146-14    H    0.51533001    0.87190003    0.00000000    0.11480000
opls_146-15    H    0.87189994    0.35656989    0.00000000    0.11490000
opls_146-16    H    0.64342992    0.51532986    0.00000000    0.11480000
opls_146-17    H    0.48466999    0.12809997    0.00000000    0.11480000
opls_146-18    H    0.64342998    0.12809997    0.00000000    0.11490000
opls_146-19    H    0.48466995    0.35656989    0.00000000    0.11480000
opls_146-20    H    0.87189994    0.51532986    0.00000000    0.11480000
opls_146-21    H    0.35657002    0.87190003    0.00000000    0.11480000
opls_146-22    H    0.51533005    0.64343011    0.00000000    0.11480000
opls_146-23    H    0.12809992    0.48466986    0.00000000    0.11480000
opls_146-24    H    0.18858994    0.70870010    0.00000000    0.11480000
opls_146-25    H    0.29130007    0.47988999    0.00000000    0.11480000
opls_146-26    H    0.52010999    0.81140991    0.00000000    0.11480000
opls_146-27    H    0.81141006    0.29129990    0.00000000    0.11480000
opls_146-28    H    0.70869993    0.52011001    0.00000000    0.11480000
opls_146-29    H    0.47989001    0.18859009    0.00000000    0.11480000
opls_146-30    H    0.70870008    0.18859009    0.00000000    0.11480000
opls_146-31    H    0.47988984    0.29129990    0.00000000    0.11480000
opls_146-32    H    0.81141008    0.52011001    0.00000000    0.11480000
opls_146-33    H    0.29129992    0.81140991    0.00000000    0.11480000
opls_146-34    H    0.52011016    0.70870010    0.00000000    0.11480000
opls_146-35    H    0.18858992    0.47988999    0.00000000    0.11480000
opls_146-36    H    0.39935996    0.65557005    0.00000000    0.11380000
opls_146-37    H    0.34442995    0.74378991    0.00000000    0.11380000
opls_146-38    H    0.25621009    0.60064004    0.00000000    0.11380000
opls_146-39    H    0.60064004    0.34442995    0.00000000    0.11380000
opls_146-40    H    0.65557005    0.25621009    0.00000000    0.11380000
opls_146-41    H    0.74378991    0.39935996    0.00000000    0.11380000
opls_146-42    H    0.65557005    0.39935996    0.00000000    0.11380000
opls_146-43    H    0.74378991    0.34442995    0.00000000    0.11380000
opls_146-44    H    0.60064004    0.25621009    0.00000000    0.11380000
opls_146-45    H    0.34442995    0.60064004    0.00000000    0.11380000
opls_146-46    H    0.25621009    0.65557005    0.00000000    0.11380000
opls_146-47    H    0.39935996    0.74378991    0.00000000    0.11380000
opls_145-48    C    0.01907008    0.54047996    0.00000000    -0.11270000
opls_145-49    C    0.45951993    0.47858987    0.00000000    -0.11270000
opls_145-50    C    0.52140985    0.98092988    0.00000000    -0.11270000
opls_145-51    C    0.98092992    0.45952004    0.00000000    -0.11270000
opls_145-52    C    0.54048007    0.52141013    0.00000000    -0.11270000
opls_145-53    C    0.47859015    0.01907012    0.00000000    -0.11270000
opls_145-54    C    0.54047997    0.01907012    0.00000000    -0.11270000
opls_145-55    C    0.47859012    0.45952004    0.00000000    -0.11270000
opls_145-56    C    0.98093005    0.52141013    0.00000000    -0.11270000
opls_145-57    C    0.45952003    0.98092988    0.00000000    -0.11270000
opls_145-58    C    0.52140988    0.54047996    0.00000000    -0.11270000
opls_145-59    C    0.01906995    0.47858987    0.00000000    -0.11270000
opls_166-60    C    0.13023013    0.58160011    0.00000000    0.13510000
opls_166-61    C    0.41839994    0.54862986    0.00000000    0.13510000
opls_166-62    C    0.45136993    0.86977003    0.00000000    0.13510000
opls_166-63    C    0.86976987    0.41839989    0.00000000    0.13510000
opls_166-64    C    0.58159992    0.45136986    0.00000000    0.13510000
opls_166-65    C    0.54863007    0.13022997    0.00000000    0.13510000
opls_166-66    C    0.58159990    0.13022997    0.00000000    0.13510000
opls_166-67    C    0.54863002    0.41839989    0.00000000    0.13510000
opls_166-68    C    0.86976994    0.45136986    0.00000000    0.13510000
opls_166-69    C    0.41840010    0.86977003    0.00000000    0.13510000
opls_166-70    C    0.45136998    0.58160011    0.00000000    0.13510000
opls_166-71    C    0.13022992    0.54862986    0.00000000    0.13510000
opls_147-72    C    0.16162994    0.61632011    0.00000000    0.01740000
opls_147-73    C    0.38368006    0.54531004    0.00000000    0.01740000
opls_147-74    C    0.45469014    0.83837013    0.00000000    0.01740000
opls_147-75    C    0.83837006    0.38367989    0.00000000    0.01740000
opls_147-76    C    0.61631994    0.45468996    0.00000000    0.01740000
opls_147-77    C    0.54530986    0.16162987    0.00000000    0.01740000
opls_147-78    C    0.61632000    0.16162987    0.00000000    0.01740000
opls_147-79    C    0.54530984    0.38367989    0.00000000    0.01740000
opls_147-80    C    0.83837002    0.45468996    0.00000000    0.01740000
opls_147-81    C    0.38368000    0.83837013    0.00000000    0.01740000
opls_147-82    C    0.45469016    0.61632011    0.00000000    0.01740000
opls_147-83    C    0.16162998    0.54531004    0.00000000    0.01740000
opls_145-84    C    0.15655994    0.64778996    0.00000000    -0.18510000
opls_145-85    C    0.35221012    0.50877005    0.00000000    -0.18510000
opls_145-86    C    0.49122995    0.84343998    0.00000000    -0.18510000
opls_145-87    C    0.84344006    0.35221004    0.00000000    -0.18510000
opls_145-88    C    0.64778988    0.49122995    0.00000000    -0.18500000
opls_145-89    C    0.50877005    0.15656002    0.00000000    -0.18510000
opls_145-90    C    0.64778996    0.15656002    0.00000000    -0.18510000
opls_145-91    C    0.50876998    0.35221004    0.00000000    -0.18510000
opls_145-92    C    0.84344006    0.49122995    0.00000000    -0.18510000
opls_145-93    C    0.35221004    0.84343998    0.00000000    -0.18500000
opls_145-94    C    0.49123002    0.64778996    0.00000000    -0.18510000
opls_145-95    C    0.15655994    0.50877005    0.00000000    -0.18500000
opls_145-96    C    0.18823994    0.68197006    0.00000000    -0.18510000
opls_145-97    C    0.31803006    0.50626997    0.00000000    -0.18510000
opls_145-98    C    0.49372999    0.81175998    0.00000000    -0.18510000
opls_145-99    C    0.81176006    0.31802994    0.00000000    -0.18510000
opls_145-100    C    0.68196994    0.49373003    0.00000000    -0.18510000
opls_145-101    C    0.50627001    0.18824002    0.00000000    -0.18510000
opls_145-102    C    0.68197002    0.18824002    0.00000000    -0.18510000
opls_145-103    C    0.50626989    0.31802994    0.00000000    -0.18510000
opls_145-104    C    0.81176009    0.49373003    0.00000000    -0.18510000
opls_145-105    C    0.31802998    0.81175998    0.00000000    -0.18510000
opls_145-106    C    0.49373011    0.68197006    0.00000000    -0.18510000
opls_145-107    C    0.18823991    0.50626997    0.00000000    -0.18510000
opls_145-108    C    0.22266001    0.68215990    0.00000000    0.09530000
opls_145-109    C    0.31784008    0.54049999    0.00000000    0.09520000
opls_145-110    C    0.45950015    0.77734011    0.00000000    0.09520000
opls_145-111    C    0.77733999    0.31784010    0.00000000    0.09520000
opls_145-112    C    0.68215992    0.45950001    0.00000000    0.09530000
opls_145-113    C    0.54049985    0.22265989    0.00000000    0.09530000
opls_145-114    C    0.68216004    0.22265989    0.00000000    0.09520000
opls_145-115    C    0.54050012    0.31784010    0.00000000    0.09520000
opls_145-116    C    0.77734009    0.45950001    0.00000000    0.09520000
opls_145-117    C    0.31783996    0.77734011    0.00000000    0.09520000
opls_145-118    C    0.45949988    0.68215990    0.00000000    0.09530000
opls_145-119    C    0.22265991    0.54049999    0.00000000    0.09520000
opls_261-120    C    0.25438990    0.71640995    0.00000000    -0.00700000
opls_261-121    C    0.28358991    0.53797987    0.00000000    -0.00700000
opls_261-122    C    0.46202004    0.74560990    0.00000000    -0.00700000
opls_261-123    C    0.74561010    0.28359005    0.00000000    -0.00700000
opls_261-124    C    0.71641009    0.46202013    0.00000000    -0.00700000
opls_261-125    C    0.53797996    0.25439010    0.00000000    -0.00700000
opls_261-126    C    0.71641015    0.25439010    0.00000000    -0.00700000
opls_261-127    C    0.53797995    0.28359005    0.00000000    -0.00700000
opls_261-128    C    0.74561004    0.46202013    0.00000000    -0.00700000
opls_261-129    C    0.28358985    0.74560990    0.00000000    -0.00700000
opls_261-130    C    0.46202005    0.71640995    0.00000000    -0.00700000
opls_261-131    C    0.25438996    0.53797987    0.00000000    -0.00700000
opls_700-132    C    0.41976993    0.61559995    0.00000000    0.03290000
opls_700-133    C    0.38439989    0.80417001    0.00000000    0.03290000
opls_700-134    C    0.19582993    0.58023004    0.00000000    0.03290000
opls_700-135    C    0.58023007    0.38440005    0.00000000    0.03290000
opls_700-136    C    0.61560011    0.19582999    0.00000000    0.03290000
opls_700-137    C    0.80417007    0.41976996    0.00000000    0.03290000
opls_700-138    C    0.61559990    0.41976996    0.00000000    0.03290000
opls_700-139    C    0.80416998    0.38440005    0.00000000    0.03290000
opls_700-140    C    0.58022988    0.19582999    0.00000000    0.03290000
opls_700-141    C    0.38440010    0.58023004    0.00000000    0.03290000
opls_700-142    C    0.19583002    0.61559995    0.00000000    0.03290000
opls_700-143    C    0.41977012    0.80417001    0.00000000    0.03290000
opls_145-144    C    0.34911002    0.57672010    0.00000000    -0.09230000
opls_145-145    C    0.42327982    0.77238986    0.00000000    -0.09230000
opls_145-146    C    0.22760991    0.65089004    0.00000000    -0.09220000
opls_145-147    C    0.65088998    0.42327990    0.00000000    -0.09230000
opls_145-148    C    0.57672018    0.22761014    0.00000000    -0.09230000
opls_145-149    C    0.77239009    0.34910996    0.00000000    -0.09230000
opls_145-150    C    0.57671988    0.34910996    0.00000000    -0.09230000
opls_145-151    C    0.77238992    0.42327990    0.00000000    -0.09230000
opls_145-152    C    0.65088996    0.22761014    0.00000000    -0.09230000
opls_145-153    C    0.42328012    0.65089004    0.00000000    -0.09230000
opls_145-154    C    0.22761008    0.57672010    0.00000000    -0.09230000
opls_145-155    C    0.34911004    0.77238986    0.00000000    -0.09230000
opls_145-156    C    0.03497006    0.51747988    0.00000000    -0.24000000
opls_145-157    C    0.48250982    0.51747988    0.00000000    -0.24010000
opls_145-158    C    0.48251015    0.96503008    0.00000000    -0.24010000
opls_145-159    C    0.96502999    0.48250996    0.00000000    -0.24010000
opls_145-160    C    0.51748016    0.48252012    0.00000000    -0.24010000
opls_145-161    C    0.51748008    0.03496992    0.00000000    -0.24010000
opls_167-162    O    0.09491004    0.57617991    0.00000000    -0.33080000
opls_167-163    O    0.42382015    0.51873007    0.00000000    -0.33070000
opls_167-164    O    0.48127006    0.90509002    0.00000000    -0.33070000
opls_167-165    O    0.90508996    0.42382009    0.00000000    -0.33080000
opls_167-166    O    0.57617985    0.48126993    0.00000000    -0.33080000
opls_167-167    O    0.51872994    0.09490998    0.00000000    -0.33070000
opls_167-168    O    0.57618004    0.09490998    0.00000000    -0.33070000
opls_167-169    O    0.51873012    0.42382009    0.00000000    -0.33070000
opls_167-170    O    0.90509008    0.48126993    0.00000000    -0.33070000
opls_167-171    O    0.42381996    0.90509002    0.00000000    -0.33080000
opls_167-172    O    0.48126988    0.57617991    0.00000000    -0.33070000
opls_167-173    O    0.09490992    0.51873007    0.00000000    -0.33070000
MOF2_B_2-174    B    0.07503003    0.53750993    0.00000000    0.59020000
MOF2_B_2-175    B    0.46248991    0.53750993    0.00000000    0.59020000
MOF2_B_2-176    B    0.46248988    0.92496999    0.00000000    0.59020000
MOF2_B_2-177    B    0.92496997    0.46249007    0.00000000    0.59010000
MOF2_B_2-178    B    0.53751009    0.46249007    0.00000000    0.59020000
MOF2_B_2-179    B    0.53751012    0.07503001    0.00000000    0.59010000
