#======================================================================
# Crystal Data Generated By AuToFF
#----------------------------------------------------------------------

data_AuToFF_phase_1

_cell_length_a                         29.1006
_cell_length_b                         29.1006
_cell_length_c                         7.8600
_cell_angle_alpha                      90.00
_cell_angle_beta                       90.00
_cell_angle_gamma                      120.00
_symmetry_space_group_name_H-M_alt     'P 1'
_symmetry_space_group_IT_number        1

loop_
_space_group_symop_operation_xyz
   'x, y, z'

loop_
   _atom_site_label
   _atom_site_type_symbol
   _atom_site_fract_x
   _atom_site_fract_y
   _atom_site_fract_z
   _atom_site_charge
opls_750-0    N    0.14203006    0.07812003    0.29296056    -0.19790000
opls_750-1    N    0.52108984    0.23488981    0.15180025    -0.31930000
opls_900-2    N    0.34921003    0.07926994    0.21574046    -0.17710000
opls_750-3    N    0.92187993    0.06390997    0.29296056    -0.19790000
opls_750-4    N    0.76510981    0.28619991    0.15180025    -0.31930000
opls_900-5    N    0.92073009    0.26994000    0.21574046    -0.17710000
opls_750-6    N    0.93609001    0.85797001    0.29296056    -0.19790000
opls_750-7    N    0.71379980    0.47890989    0.15180025    -0.31930000
opls_900-8    N    0.73005988    0.65079006    0.21574046    -0.17710000
opls_145-9    C    0.19498006    0.09734004    0.25870992    0.19150000
opls_523-10    C    0.22086993    0.06768985    0.26251018    -0.25330000
opls_522-11    C    0.27025006    0.08535005    0.21805980    -0.00130000
opls_523-12    C    0.29865024    0.13854017    0.18555980    0.02380000
opls_608-13    C    0.27234000    0.16843003    0.18300000    -0.21360000
opls_145-14    C    0.22062991    0.14708994    0.21670992    -0.22290000
opls_521-15    C    0.29417000    0.05295998    0.21226972    0.04760000
opls_700-16    C    0.05466008    0.01675987    0.35315013    -0.14010000
opls_145-17    C    0.17411997    0.91309014    0.15443003    -0.15330000
opls_166-18    C    0.03774999    0.05445987    0.35684987    0.18680000
opls_142-19    C    0.11088984    0.03305986    0.33384987    0.10100000
opls_700-20    C    0.26035004    0.99253984    0.19224046    0.01630000
opls_523-21    C    0.28301999    0.95947997    0.17962977    -0.14420000
opls_145-22    C    0.25214008    0.90513994    0.16106997    -0.15330000
opls_145-23    C    0.19761998    0.88179007    0.14993003    -0.15560000
opls_523-24    C    0.20484994    0.96737979    0.17310941    -0.08840000
opls_522-25    C    0.35295001    0.16074012    0.16250000    -0.00710000
opls_523-26    C    0.38366988    0.21263986    0.12511959    -0.21350000
opls_521-27    C    0.37853998    0.13152997    0.18596947    0.11610000
opls_522-28    C    0.43459982    0.15739989    0.17918957    -0.27450000
opls_523-29    C    0.46441994    0.20986983    0.14984987    0.19150000
opls_145-30    C    0.43875988    0.23689997    0.11988041    -0.21980000
opls_142-31    C    0.55192006    0.28332988    0.18025064    0.10150000
opls_700-32    C    0.61060993    0.30780982    0.18284987    -0.26090000
opls_166-33    C    0.63647005    0.27750015    0.18539059    0.18620000
opls_905-34    C    0.37688986    0.05568002    0.26625954    -0.25820000
opls_145-35    C    0.90266013    0.09764002    0.25870992    0.19150000
opls_523-36    C    0.93231014    0.15317996    0.26251018    -0.25330000
opls_522-37    C    0.91464981    0.18489984    0.21805980    -0.00130000
opls_523-38    C    0.86145985    0.16011001    0.18555980    0.02380000
opls_608-39    C    0.83156995    0.10391019    0.18300000    -0.21360000
opls_145-40    C    0.85290978    0.07353981    0.21670992    -0.22290000
opls_521-41    C    0.94703984    0.24120997    0.21226972    0.04760000
opls_700-42    C    0.98324007    0.03789998    0.35315013    -0.14010000
opls_145-43    C    0.08691003    0.26102994    0.15443003    -0.15330000
opls_166-44    C    0.94554017    0.98329012    0.35684987    0.18680000
opls_142-45    C    0.96693984    0.07782997    0.33384987    0.10100000
opls_700-46    C    0.00745984    0.26780999    0.19224046    0.01630000
opls_523-47    C    0.04051993    0.32354001    0.17962977    -0.14420000
opls_145-48    C    0.09486013    0.34700018    0.16106997    -0.15330000
opls_145-49    C    0.11820991    0.31582986    0.14993003    -0.15560000
opls_523-50    C    0.03262002    0.23747017    0.17310941    -0.08840000
opls_522-51    C    0.83926013    0.19221002    0.16250000    -0.00710000
opls_523-52    C    0.78735990    0.17102984    0.12511959    -0.21350000
opls_521-53    C    0.86847002    0.24700994    0.18596947    0.11610000
opls_522-54    C    0.84260000    0.27720017    0.17918957    -0.27450000
opls_523-55    C    0.79012999    0.25454986    0.14984987    0.19150000
opls_145-56    C    0.76309990    0.20186010    0.11988041    -0.21980000
opls_142-57    C    0.71666998    0.26859010    0.18025064    0.10150000
opls_700-58    C    0.69218982    0.30279987    0.18284987    -0.26090000
opls_166-59    C    0.72249989    0.35896993    0.18539059    0.18620000
opls_905-60    C    0.94432012    0.32121002    0.26625954    -0.25820000
opls_145-61    C    0.90235980    0.80501995    0.25870992    0.19150000
opls_523-62    C    0.84681973    0.77912979    0.26251018    -0.25320000
opls_522-63    C    0.81510013    0.72975011    0.21805980    -0.00130000
opls_523-64    C    0.83988991    0.70134982    0.18555980    0.02380000
opls_608-65    C    0.89609005    0.72765978    0.18300000    -0.21360000
opls_145-66    C    0.92645977    0.77936986    0.21670992    -0.22290000
opls_521-67    C    0.75879016    0.70583005    0.21226972    0.04760000
opls_700-68    C    0.96210019    0.94534015    0.35315013    -0.14010000
opls_145-69    C    0.73897001    0.82587992    0.15443003    -0.15330000
opls_166-70    C    0.01670984    0.96225001    0.35684987    0.18690000
opls_142-71    C    0.92216978    0.88910977    0.33384987    0.10100000
opls_700-72    C    0.73218992    0.73964977    0.19224046    0.01630000
opls_523-73    C    0.67646008    0.71698002    0.17962977    -0.14410000
opls_145-74    C    0.65299979    0.74785988    0.16106997    -0.15330000
opls_145-75    C    0.68417011    0.80238006    0.14993003    -0.15560000
opls_523-76    C    0.76253004    0.79515004    0.17310941    -0.08840000
opls_522-77    C    0.80778986    0.64704986    0.16250000    -0.00710000
opls_523-78    C    0.82897002    0.61632991    0.12511959    -0.21350000
opls_521-79    C    0.75298999    0.62146008    0.18596947    0.11610000
opls_522-80    C    0.72279983    0.56539993    0.17918957    -0.27450000
opls_523-81    C    0.74544987    0.53557991    0.14984987    0.19150000
opls_145-82    C    0.79813988    0.56123992    0.11988041    -0.21980000
opls_142-83    C    0.73140996    0.44808002    0.18025064    0.10150000
opls_700-84    C    0.69720006    0.38938991    0.18284987    -0.26090000
opls_166-85    C    0.64103006    0.36352991    0.18539059    0.18620000
opls_905-86    C    0.67879002    0.62310996    0.26625954    -0.25820000
opls_167-87    O    0.07557019    0.10848009    0.36288041    -0.45810000
opls_167-88    O    0.60834005    0.22218995    0.19589949    -0.49420000
opls_167-89    O    0.89152016    0.96709013    0.36288041    -0.45820000
opls_167-90    O    0.77781006    0.38615007    0.19589949    -0.49440000
opls_167-91    O    0.03291000    0.92442978    0.36288041    -0.45810000
opls_167-92    O    0.61384989    0.39165998    0.19589949    -0.49440000
opls_526-93    H    0.20329005    0.03106001    0.30056997    0.21690000
opls_617-94    H    0.29084003    0.20857984    0.15716031    0.21690000
opls_146-95    H    0.20025982    0.16963986    0.21246056    0.10410000
opls_146-96    H    0.13194006    0.89552001    0.14120992    0.09450000
opls_144-97    H    0.12369005    0.00455006    0.34420992    0.10530000
opls_526-98    H    0.32472994    0.97409993    0.17911959    0.09670000
opls_146-99    H    0.27092003    0.88127979    0.15302036    0.10900000
opls_146-100    H    0.17386012    0.83984000    0.13441985    0.09700000
opls_526-101    H    0.18359992    0.98847982    0.16796947    0.21750000
opls_168-102    H    0.06734005    0.12697991    0.41538041    0.31770000
opls_526-103    H    0.36618008    0.23532985    0.09959033    0.21690000
opls_525-104    H    0.45627989    0.13748985    0.19708015    0.21680000
opls_617-105    H    0.46161008    0.27681012    0.09219975    0.21700000
opls_144-106    H    0.53466998    0.30699004    0.20325954    0.10620000
opls_168-107    H    0.57496007    0.20870999    0.23551018    0.31950000
opls_140-108    H    0.39955023    0.04501017    0.21646056    0.19750000
opls_140-109    H    0.34928009    0.02131985    0.30974046    0.19740000
opls_140-110    H    0.40547014    0.08396007    0.31794020    0.19750000
opls_526-111    H    0.96894017    0.17223014    0.30056997    0.21690000
opls_617-112    H    0.79141993    0.08225980    0.15716031    0.21680000
opls_146-113    H    0.83035984    0.03061996    0.21246056    0.10410000
opls_146-114    H    0.10447997    0.23641985    0.14120992    0.09450000
opls_144-115    H    0.99545002    0.11914002    0.34420992    0.10530000
opls_526-116    H    0.02589990    0.35063007    0.17911959    0.09670000
opls_146-117    H    0.11871980    0.38963989    0.15302036    0.10900000
opls_146-118    H    0.16015986    0.33401979    0.13441985    0.09710000
opls_526-119    H    0.01151991    0.19512012    0.16796947    0.21750000
opls_168-120    H    0.87302013    0.94035996    0.41538041    0.31770000
opls_526-121    H    0.76466997    0.13084987    0.09959033    0.21690000
opls_525-122    H    0.86251004    0.31878996    0.19708015    0.21680000
opls_617-123    H    0.72319001    0.18479985    0.09219975    0.21690000
opls_144-124    H    0.69300986    0.22768002    0.20325954    0.10620000
opls_168-125    H    0.79129010    0.36624995    0.23551018    0.31950000
opls_140-126    H    0.95499010    0.35454010    0.21646056    0.19750000
opls_140-127    H    0.97868000    0.32795992    0.30974046    0.19740000
opls_140-128    H    0.91604011    0.32151000    0.31794020    0.19750000
opls_526-129    H    0.82776978    0.79670985    0.30056997    0.21690000
opls_617-130    H    0.91773985    0.70915996    0.15716031    0.21690000
opls_146-131    H    0.96937980    0.79973978    0.21246056    0.10410000
opls_146-132    H    0.76357997    0.86806014    0.14120992    0.09450000
opls_144-133    H    0.88085992    0.87630992    0.34420992    0.10530000
opls_526-134    H    0.64937015    0.67527000    0.17911959    0.09670000
opls_146-135    H    0.61035998    0.72907992    0.15302036    0.10900000
opls_146-136    H    0.66597981    0.82613982    0.13441985    0.09700000
opls_526-137    H    0.80488017    0.81640006    0.16796947    0.21750000
opls_168-138    H    0.05964017    0.93266013    0.41538041    0.31770000
opls_526-139    H    0.86915010    0.63381988    0.09959033    0.21690000
opls_525-140    H    0.68120987    0.54371979    0.19708015    0.21680000
opls_617-141    H    0.81519991    0.53839002    0.09219975    0.21690000
opls_144-142    H    0.77231982    0.46532994    0.20325954    0.10630000
opls_168-143    H    0.63375017    0.42504006    0.23551018    0.31950000
opls_140-144    H    0.64546021    0.60045013    0.21646056    0.19750000
opls_140-145    H    0.67204005    0.65071983    0.30974046    0.19740000
opls_140-146    H    0.67849009    0.59452993    0.31794020    0.19750000
