#======================================================================
# Crystal Data Generated By AuToFF
#----------------------------------------------------------------------

data_AuToFF_phase_1

_cell_length_a                         33.9290
_cell_length_b                         33.9290
_cell_length_c                         3.4000
_cell_angle_alpha                      90.00
_cell_angle_beta                       90.00
_cell_angle_gamma                      120.00
_symmetry_space_group_name_H-M_alt     'P 1'
_symmetry_space_group_IT_number        1

loop_
_space_group_symop_operation_xyz
   'x, y, z'

loop_
   _atom_site_label
   _atom_site_type_symbol
   _atom_site_fract_x
   _atom_site_fract_y
   _atom_site_fract_z
   _atom_site_charge
opls_145-0    C    0.54775987    0.02321993    0.00000000    -0.07130000
opls_166-1    C    0.60173985    0.16271988    0.00000000    0.18200000
opls_261-2    C    0.71757017    0.31699008    0.00000000    -0.02130000
opls_700-3    C    0.75812980    0.35834986    0.00000000    0.07040000
opls_145-4    C    0.79820990    0.35725978    0.00000000    -0.21480000
opls_145-5    C    0.97678004    0.52454006    0.00000000    -0.07130000
opls_166-6    C    0.83728002    0.43901995    0.00000000    0.18050000
opls_261-7    C    0.68302004    0.40057985    0.00000000    -0.02130000
opls_700-8    C    0.64165019    0.39978008    0.00000000    0.07040000
opls_145-9    C    0.64274000    0.44094995    0.00000000    -0.21480000
opls_145-10    C    0.47546010    0.45224001    0.00000000    -0.07130000
opls_166-11    C    0.56098998    0.39825983    0.00000000    0.18050000
opls_261-12    C    0.59942011    0.28243007    0.00000000    -0.02130000
opls_700-13    C    0.60022001    0.24187006    0.00000000    0.07040000
opls_145-14    C    0.55904993    0.20178992    0.00000000    -0.21480000
opls_145-15    C    0.45223996    0.97677973    0.00000000    -0.07130000
opls_166-16    C    0.39825998    0.83727978    0.00000000    0.18050000
opls_261-17    C    0.28242976    0.68301979    0.00000000    -0.02130000
opls_700-18    C    0.24187003    0.64164980    0.00000000    0.07040000
opls_145-19    C    0.20178993    0.64273988    0.00000000    -0.21480000
opls_145-20    C    0.02321996    0.47545994    0.00000000    -0.07130000
opls_166-21    C    0.16271990    0.56098992    0.00000000    0.18240000
opls_261-22    C    0.31698981    0.59941981    0.00000000    -0.02130000
opls_700-23    C    0.35834981    0.60021992    0.00000000    0.07040000
opls_145-24    C    0.35726000    0.55905005    0.00000000    -0.21480000
opls_145-25    C    0.52453990    0.54775999    0.00000000    -0.07130000
opls_166-26    C    0.43901987    0.60173983    0.00000000    0.18240000
opls_261-27    C    0.40057989    0.71756993    0.00000000    -0.02300000
opls_700-28    C    0.39977999    0.75812994    0.00000000    0.07040000
opls_145-29    C    0.44094990    0.79820974    0.00000000    -0.21480000
opls_145-30    C    0.02322009    0.54775999    0.00000000    -0.07130000
opls_166-31    C    0.16271995    0.60173983    0.00000000    0.18200000
opls_261-32    C    0.31699004    0.71756993    0.00000000    -0.02130000
opls_700-33    C    0.35834995    0.75812994    0.00000000    0.07040000
opls_145-34    C    0.35725984    0.79820974    0.00000000    -0.21480000
opls_145-35    C    0.52453977    0.97677973    0.00000000    -0.07130000
opls_166-36    C    0.43901980    0.83727978    0.00000000    0.18050000
opls_261-37    C    0.40058001    0.68301979    0.00000000    -0.02130000
opls_700-38    C    0.39977978    0.64164980    0.00000000    0.07040000
opls_145-39    C    0.44094994    0.64273988    0.00000000    -0.21480000
opls_145-40    C    0.45223997    0.47545994    0.00000000    -0.07130000
opls_166-41    C    0.39826000    0.56098992    0.00000000    0.18050000
opls_261-42    C    0.28243000    0.59941981    0.00000000    -0.02130000
opls_700-43    C    0.24187011    0.60021992    0.00000000    0.07040000
opls_145-44    C    0.20179005    0.55905005    0.00000000    -0.21480000
opls_145-45    C    0.97677991    0.45224001    0.00000000    -0.07130000
opls_166-46    C    0.83727988    0.39825983    0.00000000    0.18050000
opls_261-47    C    0.68301998    0.28243007    0.00000000    -0.02130000
opls_700-48    C    0.64165005    0.24187006    0.00000000    0.07040000
opls_145-49    C    0.64273999    0.20178992    0.00000000    -0.21480000
opls_145-50    C    0.47546006    0.02321993    0.00000000    -0.07130000
opls_166-51    C    0.56099005    0.16271988    0.00000000    0.18240000
opls_261-52    C    0.59941991    0.31699008    0.00000000    -0.02130000
opls_700-53    C    0.60022005    0.35834986    0.00000000    0.07040000
opls_145-54    C    0.55904989    0.35725978    0.00000000    -0.21480000
opls_145-55    C    0.54776003    0.52454006    0.00000000    -0.07130000
opls_166-56    C    0.60173993    0.43901995    0.00000000    0.18050000
opls_261-57    C    0.71756983    0.40057985    0.00000000    -0.02300000
opls_700-58    C    0.75812989    0.39978008    0.00000000    0.07040000
opls_145-59    C    0.79820995    0.44094995    0.00000000    -0.21480000
opls_145-60    C    0.47713980    0.52285986    0.00000000    -0.24680000
opls_145-61    C    0.47713997    0.95427994    0.00000000    -0.24650000
opls_145-62    C    0.04572007    0.52285986    0.00000000    -0.24680000
opls_145-63    C    0.52286003    0.47713980    0.00000000    -0.24680000
opls_145-64    C    0.52285996    0.04572993    0.00000000    -0.24690000
opls_145-65    C    0.95427976    0.47713980    0.00000000    -0.24650000
opls_167-66    O    0.59684998    0.12069987    0.00000000    -0.34180000
opls_167-67    O    0.87930992    0.47615999    0.00000000    -0.34150000
opls_167-68    O    0.52384003    0.40315001    0.00000000    -0.34150000
opls_167-69    O    0.40314995    0.87931000    0.00000000    -0.34170000
opls_167-70    O    0.12070010    0.52384001    0.00000000    -0.34190000
opls_167-71    O    0.47615997    0.59684999    0.00000000    -0.34190000
opls_167-72    O    0.12070004    0.59684999    0.00000000    -0.34180000
opls_167-73    O    0.47616006    0.87931000    0.00000000    -0.34150000
opls_167-74    O    0.40314993    0.52384001    0.00000000    -0.34160000
opls_167-75    O    0.87930998    0.40315001    0.00000000    -0.34170000
opls_167-76    O    0.52383987    0.12069987    0.00000000    -0.34180000
opls_167-77    O    0.59685007    0.47615999    0.00000000    -0.34180000
opls_146-78    H    0.79944983    0.32600981    0.00000000    0.12140000
opls_146-79    H    0.58479003    0.04158984    0.00000000    0.11070000
opls_146-80    H    0.67398993    0.47344009    0.00000000    0.12140000
opls_146-81    H    0.95841007    0.54319993    0.00000000    0.11070000
opls_146-82    H    0.52655994    0.20055011    0.00000000    0.12140000
opls_146-83    H    0.45680003    0.41520989    0.00000000    0.11070000
opls_146-84    H    0.20055000    0.67398985    0.00000000    0.12140000
opls_146-85    H    0.41520980    0.95840982    0.00000000    0.11070000
opls_146-86    H    0.32601007    0.52655991    0.00000000    0.12130000
opls_146-87    H    0.04158993    0.45680007    0.00000000    0.11070000
opls_146-88    H    0.47344006    0.79944989    0.00000000    0.12140000
opls_146-89    H    0.54319980    0.58478977    0.00000000    0.11070000
opls_146-90    H    0.32600984    0.79944989    0.00000000    0.12140000
opls_146-91    H    0.04158997    0.58478977    0.00000000    0.11070000
opls_146-92    H    0.47343986    0.67398985    0.00000000    0.12140000
opls_146-93    H    0.54320002    0.95840982    0.00000000    0.11070000
opls_146-94    H    0.20054984    0.52655991    0.00000000    0.12140000
opls_146-95    H    0.41521014    0.45680007    0.00000000    0.11070000
opls_146-96    H    0.67399016    0.20055011    0.00000000    0.12140000
opls_146-97    H    0.95840986    0.41520989    0.00000000    0.11070000
opls_146-98    H    0.52655997    0.32600981    0.00000000    0.12130000
opls_146-99    H    0.45679981    0.04158984    0.00000000    0.11070000
opls_146-100    H    0.79945016    0.47344009    0.00000000    0.12140000
opls_146-101    H    0.58478986    0.54319993    0.00000000    0.11070000
MOF2_B_2-102    B    0.45226993    0.54773004    0.00000000    0.57820000
MOF2_B_2-103    B    0.45226988    0.90454978    0.00000000    0.57820000
MOF2_B_2-104    B    0.09546012    0.54773004    0.00000000    0.57760000
MOF2_B_2-105    B    0.54773007    0.45226996    0.00000000    0.57820000
MOF2_B_2-106    B    0.54773004    0.09546009    0.00000000    0.57810000
MOF2_B_2-107    B    0.90454990    0.45226996    0.00000000    0.57820000
