#======================================================================
# Crystal Data Generated By AuToFF
#----------------------------------------------------------------------

data_AuToFF_phase_1

_cell_length_a                         31.9559
_cell_length_b                         30.8745
_cell_length_c                         4.7232
_cell_angle_alpha                      90.00
_cell_angle_beta                       92.30
_cell_angle_gamma                      90.00
_symmetry_space_group_name_H-M_alt     'P 1'
_symmetry_space_group_IT_number        1

loop_
_space_group_symop_operation_xyz
   'x, y, z'

loop_
   _atom_site_label
   _atom_site_type_symbol
   _atom_site_fract_x
   _atom_site_fract_y
   _atom_site_fract_z
   _atom_site_charge
opls_145-0    C    0.53131988    0.89844985    0.65062010    -0.16050000
opls_145-1    C    0.53132009    0.94351002    0.65039126    -0.16250000
opls_916-2    C    0.53833991    0.80627994    0.48513049    0.17750000
opls_145-3    C    0.42866991    0.82283988    0.67113123    -0.16250000
opls_145-4    C    0.39104995    0.80056001    0.68279163    -0.16730000
opls_145-5    C    0.38453986    0.76081005    0.54111019    0.20370000
opls_145-6    C    0.41781008    0.74437999    0.38436959    -0.17130000
opls_145-7    C    0.45532996    0.76665015    0.37066019    -0.16280000
opls_916-8    C    0.46159996    0.03536997    0.52456991    0.17800000
opls_145-9    C    0.57029004    0.01753000    0.31448980    -0.16000000
opls_145-10    C    0.60841998    0.03847998    0.29437067    -0.16250000
opls_145-11    C    0.61675999    0.07799997    0.43477017    0.20410000
opls_145-12    C    0.58444993    0.09621014    0.59200024    -0.17460000
opls_145-13    C    0.54618008    0.07531005    0.61264062    -0.17130000
opls_142-14    C    0.67188999    0.12593985    0.55816112    0.07280000
opls_700-15    C    0.71344999    0.14375002    0.52169030    -0.00140000
opls_716-16    C    0.74525996    0.12393010    0.35838954    0.11630000
opls_716-17    C    0.78576008    0.14473012    0.33753939    0.11650000
opls_700-18    C    0.79496000    0.18531992    0.47308021    -0.00780000
opls_145-19    C    0.76345987    0.20306985    0.63264108    -0.12570000
opls_145-20    C    0.72447989    0.18261996    0.65754049    -0.12510000
opls_142-21    C    0.66437986    0.70545985    0.55745976    0.08020000
opls_145-22    C    0.03131988    0.39844985    0.65062010    -0.16050000
opls_145-23    C    0.03132009    0.44351002    0.65039126    -0.16250000
opls_916-24    C    0.03833991    0.30627994    0.48513049    0.17750000
opls_145-25    C    0.92866991    0.32283988    0.67113123    -0.16250000
opls_145-26    C    0.89104995    0.30056001    0.68279163    -0.16730000
opls_145-27    C    0.88453986    0.26081005    0.54111019    0.20370000
opls_145-28    C    0.91781008    0.24437999    0.38436959    -0.17130000
opls_145-29    C    0.95532996    0.26665015    0.37066019    -0.16280000
opls_916-30    C    0.96159996    0.53536997    0.52456991    0.17800000
opls_145-31    C    0.07029004    0.51753000    0.31448980    -0.16000000
opls_145-32    C    0.10841998    0.53847998    0.29437067    -0.16250000
opls_145-33    C    0.11675999    0.57799997    0.43477017    0.20410000
opls_145-34    C    0.08444993    0.59621014    0.59200024    -0.17460000
opls_145-35    C    0.04618008    0.57531005    0.61264062    -0.17130000
opls_142-36    C    0.17188999    0.62593985    0.55816112    0.07280000
opls_700-37    C    0.21344999    0.64375002    0.52169030    -0.00140000
opls_716-38    C    0.24525996    0.62393010    0.35838954    0.11630000
opls_716-39    C    0.28576008    0.64473012    0.33753939    0.11650000
opls_700-40    C    0.29496000    0.68531992    0.47308021    -0.00780000
opls_145-41    C    0.26345987    0.70306985    0.63264108    -0.12570000
opls_145-42    C    0.22447989    0.68261996    0.65754049    -0.12510000
opls_142-43    C    0.16437986    0.20545985    0.55745976    0.08020000
opls_145-44    C    0.46868012    0.89844985    0.34937990    -0.16050000
opls_145-45    C    0.46867992    0.94351002    0.34961086    -0.16250000
opls_916-46    C    0.46166009    0.80627994    0.51486951    0.17750000
opls_145-47    C    0.57133010    0.82283988    0.32887089    -0.16250000
opls_145-48    C    0.60895006    0.80056001    0.31721049    -0.16730000
opls_145-49    C    0.61546014    0.76081005    0.45888981    0.20370000
opls_145-50    C    0.58218992    0.74437999    0.61563041    -0.17130000
opls_145-51    C    0.54467004    0.76665015    0.62933981    -0.16280000
opls_916-52    C    0.53840004    0.03536997    0.47543009    0.17800000
opls_145-53    C    0.42970996    0.01753000    0.68551020    -0.16000000
opls_145-54    C    0.39158004    0.03847998    0.70563145    -0.16250000
opls_145-55    C    0.38324001    0.07799997    0.56522983    0.20410000
opls_145-56    C    0.41555007    0.09621014    0.40799976    -0.17460000
opls_145-57    C    0.45381992    0.07531005    0.38735938    -0.17090000
opls_142-58    C    0.32811002    0.12593985    0.44184100    0.07280000
opls_700-59    C    0.28655001    0.14375002    0.47830970    -0.00140000
opls_716-60    C    0.25474004    0.12393010    0.64161046    0.11630000
opls_716-61    C    0.21423992    0.14473012    0.66246061    0.11650000
opls_700-62    C    0.20504000    0.18531992    0.52691979    -0.00780000
opls_145-63    C    0.23654015    0.20306985    0.36736104    -0.12570000
opls_145-64    C    0.27552011    0.18261996    0.34245951    -0.12510000
opls_142-65    C    0.33562014    0.70545985    0.44254024    0.08020000
opls_145-66    C    0.96868012    0.39844985    0.34937990    -0.16050000
opls_145-67    C    0.96867992    0.44351002    0.34961086    -0.16250000
opls_916-68    C    0.96166009    0.30627994    0.51486951    0.17750000
opls_145-69    C    0.07133010    0.32283988    0.32887089    -0.16250000
opls_145-70    C    0.10895006    0.30056001    0.31721049    -0.16730000
opls_145-71    C    0.11546014    0.26081005    0.45888981    0.20370000
opls_145-72    C    0.08218992    0.24437999    0.61563041    -0.17130000
opls_145-73    C    0.04467004    0.26665015    0.62933981    -0.16280000
opls_916-74    C    0.03840004    0.53536997    0.47543009    0.17800000
opls_145-75    C    0.92970996    0.51753000    0.68551020    -0.16000000
opls_145-76    C    0.89158004    0.53847998    0.70563145    -0.16250000
opls_145-77    C    0.88324001    0.57799997    0.56522983    0.20410000
opls_145-78    C    0.91555007    0.59621014    0.40799976    -0.17460000
opls_145-79    C    0.95381992    0.57531005    0.38735938    -0.17090000
opls_142-80    C    0.82811002    0.62593985    0.44184100    0.07280000
opls_700-81    C    0.78655001    0.64375002    0.47830970    -0.00140000
opls_716-82    C    0.75474004    0.62393010    0.64161046    0.11630000
opls_716-83    C    0.71423992    0.64473012    0.66246061    0.11650000
opls_700-84    C    0.70504000    0.68531992    0.52691979    -0.00780000
opls_145-85    C    0.73654015    0.70306985    0.36736104    -0.12570000
opls_145-86    C    0.77552011    0.68261996    0.34245951    -0.12510000
opls_142-87    C    0.83562014    0.20545985    0.44254024    0.08020000
opls_916-88    C    0.49999985    0.87509012    0.50000106    0.17680000
opls_916-89    C    0.49999985    0.96689015    0.50000106    0.17530000
opls_916-90    C    0.99999985    0.37509012    0.50000106    0.17680000
opls_916-91    C    0.99999985    0.46689015    0.50000106    0.17530000
opls_750-92    N    0.65655002    0.09528996    0.40014070    -0.26480000
opls_750-93    N    0.65456003    0.74138010    0.43036070    -0.27850000
opls_750-94    N    0.18710000    0.12173995    0.81539987    -0.31980000
opls_750-95    N    0.25704006    0.08553985    0.77909009    -0.31980000
opls_750-96    N    0.15655002    0.59528996    0.40014070    -0.26490000
opls_750-97    N    0.15456003    0.24138010    0.43036070    -0.27850000
opls_750-98    N    0.68710000    0.62173995    0.81539987    -0.31980000
opls_750-99    N    0.75704006    0.58553985    0.77909009    -0.31980000
opls_750-100    N    0.34345000    0.09528996    0.59986142    -0.26480000
opls_750-101    N    0.34543998    0.74138010    0.56964142    -0.27940000
opls_750-102    N    0.81290000    0.12173995    0.18460013    -0.31980000
opls_750-103    N    0.74295994    0.08553985    0.22090991    -0.31980000
opls_750-104    N    0.84345000    0.59528996    0.59986142    -0.26480000
opls_750-105    N    0.84543998    0.24138010    0.56964142    -0.27940000
opls_750-106    N    0.31290000    0.62173995    0.18460013    -0.31980000
opls_750-107    N    0.24295994    0.58553985    0.22090991    -0.31980000
opls_239-108    N    0.49999985    0.82895010    0.50000106    -0.13070000
opls_239-109    N    0.49999985    0.01310013    0.50000106    -0.13320000
opls_239-110    N    0.99999985    0.32895010    0.50000106    -0.13070000
opls_239-111    N    0.99999985    0.51310013    0.50000106    -0.13320000
opls_202-112    S    0.21210009    0.07844985    0.91606119    0.45280000
opls_202-113    S    0.71210009    0.57844985    0.91606119    0.45290000
opls_202-114    S    0.78789992    0.07844985    0.08394093    0.45290000
opls_202-115    S    0.28789992    0.57844985    0.08394093    0.45290000
opls_146-116    H    0.55589995    0.88107014    0.76984102    0.11050000
opls_146-117    H    0.55597004    0.96091985    0.76873070    0.11050000
opls_146-118    H    0.43280000    0.85342985    0.78361187    0.11180000
opls_146-119    H    0.36562000    0.81318985    0.80609994    0.11030000
opls_146-120    H    0.41423007    0.71413011    0.26676117    0.11020000
opls_146-121    H    0.48024010    0.75358014    0.24470959    0.11070000
opls_146-122    H    0.56481007    0.98687007    0.20535069    0.11200000
opls_146-123    H    0.63305993    0.02486000    0.16823996    0.11010000
opls_146-124    H    0.58929008    0.12689987    0.70290016    0.11030000
opls_146-125    H    0.52201985    0.08970995    0.73914002    0.11000000
opls_144-126    H    0.65485993    0.14066009    0.73357150    0.05750000
opls_146-127    H    0.26989014    0.73368994    0.74103009    0.11030000
opls_146-128    H    0.70123001    0.19798993    0.78816118    0.11120000
opls_144-129    H    0.64323007    0.68786993    0.69551997    0.06700000
opls_146-130    H    0.05589995    0.38107014    0.76984102    0.11050000
opls_146-131    H    0.05597004    0.46091985    0.76873070    0.11050000
opls_146-132    H    0.93280000    0.35342985    0.78361187    0.11180000
opls_146-133    H    0.86562000    0.31318985    0.80609994    0.11030000
opls_146-134    H    0.91423007    0.21413011    0.26676117    0.11020000
opls_146-135    H    0.98024010    0.25358014    0.24470959    0.11070000
opls_146-136    H    0.06481007    0.48687007    0.20535069    0.11200000
opls_146-137    H    0.13305993    0.52486000    0.16823996    0.11010000
opls_146-138    H    0.08929008    0.62689987    0.70290016    0.11030000
opls_146-139    H    0.02201985    0.58970995    0.73914002    0.11000000
opls_144-140    H    0.15485993    0.64066009    0.73357150    0.05750000
opls_146-141    H    0.76989014    0.23368994    0.74103009    0.11030000
opls_146-142    H    0.20123001    0.69798993    0.78816118    0.11120000
opls_144-143    H    0.14323007    0.18786993    0.69551997    0.06700000
opls_146-144    H    0.44410006    0.88107014    0.23016110    0.11050000
opls_146-145    H    0.44402996    0.96091985    0.23126930    0.11050000
opls_146-146    H    0.56720001    0.85342985    0.21639025    0.11180000
opls_146-147    H    0.63438000    0.81318985    0.19390006    0.11030000
opls_146-148    H    0.58576995    0.71413011    0.73324095    0.11020000
opls_146-149    H    0.51975990    0.75358014    0.75529041    0.11070000
opls_146-150    H    0.43518994    0.98687007    0.79465143    0.11200000
opls_146-151    H    0.36694007    0.02486000    0.83176004    0.11010000
opls_146-152    H    0.41070992    0.12689987    0.29709984    0.11030000
opls_146-153    H    0.47797984    0.08970995    0.26085998    0.11000000
opls_144-154    H    0.34514008    0.14066009    0.26643062    0.05750000
opls_146-155    H    0.73010986    0.73368994    0.25896991    0.11030000
opls_146-156    H    0.29877001    0.19798993    0.21184094    0.11120000
opls_144-157    H    0.35676993    0.68786993    0.30448003    0.06700000
opls_146-158    H    0.94410006    0.38107014    0.23016110    0.11050000
opls_146-159    H    0.94402996    0.46091985    0.23126930    0.11050000
opls_146-160    H    0.06720001    0.35342985    0.21639025    0.11180000
opls_146-161    H    0.13438000    0.31318985    0.19390006    0.11030000
opls_146-162    H    0.08576995    0.21413011    0.73324095    0.11020000
opls_146-163    H    0.01975990    0.25358014    0.75529041    0.11070000
opls_146-164    H    0.93518994    0.48687007    0.79465143    0.11200000
opls_146-165    H    0.86694007    0.52486000    0.83176004    0.11010000
opls_146-166    H    0.91070992    0.62689987    0.29709984    0.11030000
opls_146-167    H    0.97797984    0.58970995    0.26085998    0.11000000
opls_144-168    H    0.84514008    0.64066009    0.26643062    0.05750000
opls_146-169    H    0.23010986    0.23368994    0.25896991    0.11030000
opls_146-170    H    0.79877001    0.69798993    0.21184094    0.11120000
opls_144-171    H    0.85676993    0.18786993    0.30448003    0.06700000
