#======================================================================
# Crystal Data Generated By AuToFF
#----------------------------------------------------------------------

data_AuToFF_phase_1

_cell_length_a                         23.8894
_cell_length_b                         23.8894
_cell_length_c                         13.5320
_cell_angle_alpha                      90.00
_cell_angle_beta                       90.00
_cell_angle_gamma                      90.00
_symmetry_space_group_name_H-M_alt     'P 1'
_symmetry_space_group_IT_number        1

loop_
_space_group_symop_operation_xyz
   'x, y, z'

loop_
   _atom_site_label
   _atom_site_type_symbol
   _atom_site_fract_x
   _atom_site_fract_y
   _atom_site_fract_z
   _atom_site_charge
opls_528-0    C    0.45539988    0.76209993    0.55430018    -0.01420000
opls_528-1    C    0.49340000    0.72010013    0.52090009    0.06260000
opls_142-2    C    0.48440019    0.68890010    0.41810006    -0.14740000
opls_142-3    C    0.52069998    0.65310012    0.36810006    -0.11680000
opls_700-4    C    0.51320000    0.62129982    0.26520027    0.09980000
opls_145-5    C    0.56019992    0.59540005    0.21909991    -0.11440000
opls_145-6    C    0.55660000    0.56199988    0.12990024    -0.11430000
opls_700-7    C    0.50539988    0.55149983    0.07860035    0.06050000
opls_145-8    C    0.45809983    0.57809991    0.12419967    -0.11290000
opls_145-9    C    0.46179979    0.61230002    0.21360035    -0.11340000
opls_528-10    C    0.21630012    0.04489983    0.88710021    0.02810000
opls_528-11    C    0.21759986    0.00359992    0.96449970    0.13770000
opls_142-12    C    0.17979983    0.01150008    0.05300030    -0.14190000
opls_142-13    C    0.16420002    0.97120020    0.14300030    -0.09700000
opls_700-14    C    0.12750006    0.98539980    0.24069982    0.09900000
opls_145-15    C    0.11900006    0.94299982    0.31430018    -0.11360000
opls_145-16    C    0.08279990    0.94899997    0.39969997    -0.11430000
opls_700-17    C    0.05210009    0.99850017    0.42139965    0.06100000
opls_145-18    C    0.06109990    0.04309987    0.35099985    -0.11290000
opls_145-19    C    0.09669979    0.03829983    0.26409991    -0.11750000
opls_528-20    C    0.28900014    0.95790016    0.86639965    0.00070000
opls_528-21    C    0.28970003    0.99840013    0.78759976    0.06390000
opls_142-22    C    0.33769998    0.99920006    0.70340009    -0.14280000
opls_142-23    C    0.32570010    0.99869984    0.58449970    -0.09790000
opls_700-24    C    0.37449999    0.99899997    0.50199970    0.09940000
opls_145-25    C    0.38919981    0.04779986    0.44659991    -0.11330000
opls_145-26    C    0.42519988    0.04769982    0.35939994    -0.11340000
opls_700-27    C    0.44820004    0.99840013    0.31500000    0.06190000
opls_145-28    C    0.43289995    0.94599990    0.37139965    -0.11750000
opls_145-29    C    0.39789991    0.94619999    0.45849985    -0.11750000
opls_528-30    C    0.54199980    0.73389997    0.67849985    0.01860000
opls_528-31    C    0.50420019    0.77609986    0.71250000    0.06300000
opls_142-32    C    0.50970012    0.79820004    0.82409991    -0.14500000
opls_142-33    C    0.49689988    0.85169992    0.87199970    -0.11680000
opls_700-34    C    0.50320016    0.86350013    0.98219997    0.10000000
opls_145-35    C    0.45089998    0.88410006    0.03770027    -0.11680000
opls_145-36    C    0.45220014    0.92170000    0.12189994    -0.11440000
opls_700-37    C    0.50169992    0.94799995    0.15860035    0.06040000
opls_145-38    C    0.55069989    0.93690005    0.10050030    -0.11360000
opls_145-39    C    0.55220014    0.90049980    0.01460021    -0.12900000
opls_905-40    C    0.41830017    0.83009996    0.67590009    -0.39360000
opls_905-41    C    0.25939998    0.91959991    0.02370012    -0.34270000
opls_528-42    C    0.54460012    0.23790007    0.55430018    -0.01420000
opls_528-43    C    0.50660000    0.27989987    0.52090009    0.06260000
opls_142-44    C    0.51559981    0.31109990    0.41810006    -0.14740000
opls_142-45    C    0.47930002    0.34689988    0.36810006    -0.11670000
opls_700-46    C    0.48680000    0.37870018    0.26520027    0.09980000
opls_145-47    C    0.43980008    0.40459995    0.21909991    -0.11440000
opls_145-48    C    0.44340000    0.43800012    0.12990024    -0.11440000
opls_700-49    C    0.49460012    0.44850017    0.07860035    0.06040000
opls_145-50    C    0.54190017    0.42190009    0.12419967    -0.11290000
opls_145-51    C    0.53820021    0.38769998    0.21360035    -0.11340000
opls_528-52    C    0.78369988    0.95510017    0.88710021    0.02810000
opls_528-53    C    0.78240014    0.99640008    0.96449970    0.13770000
opls_142-54    C    0.82020017    0.98849992    0.05300030    -0.14190000
opls_142-55    C    0.83579998    0.02879980    0.14300030    -0.09700000
opls_700-56    C    0.87249994    0.01460020    0.24069982    0.09900000
opls_145-57    C    0.88099994    0.05700018    0.31430018    -0.11360000
opls_145-58    C    0.91720010    0.05100003    0.39969997    -0.11430000
opls_700-59    C    0.94789991    0.00149983    0.42139965    0.06100000
opls_145-60    C    0.93890010    0.95690013    0.35099985    -0.11290000
opls_145-61    C    0.90330021    0.96170017    0.26409991    -0.11750000
opls_528-62    C    0.71099986    0.04209984    0.86639965    0.00070000
opls_528-63    C    0.71029997    0.00159987    0.78759976    0.06390000
opls_142-64    C    0.66230002    0.00079994    0.70340009    -0.14280000
opls_142-65    C    0.67429990    0.00130016    0.58449970    -0.09790000
opls_700-66    C    0.62550001    0.00100003    0.50199970    0.09940000
opls_145-67    C    0.61080019    0.95220014    0.44659991    -0.11340000
opls_145-68    C    0.57480012    0.95230018    0.35939994    -0.11340000
opls_700-69    C    0.55179996    0.00159987    0.31500000    0.06190000
opls_145-70    C    0.56710005    0.05400010    0.37139965    -0.11750000
opls_145-71    C    0.60210009    0.05380001    0.45849985    -0.11750000
opls_528-72    C    0.45800020    0.26610003    0.67849985    0.01860000
opls_528-73    C    0.49579981    0.22390014    0.71250000    0.06300000
opls_142-74    C    0.49029988    0.20179996    0.82409991    -0.14510000
opls_142-75    C    0.50310012    0.14830008    0.87199970    -0.11680000
opls_700-76    C    0.49679984    0.13649987    0.98219997    0.10000000
opls_145-77    C    0.54910002    0.11589994    0.03770027    -0.11680000
opls_145-78    C    0.54779986    0.07830000    0.12189994    -0.11440000
opls_700-79    C    0.49830008    0.05200005    0.15860035    0.06040000
opls_145-80    C    0.44930011    0.06309995    0.10050030    -0.11360000
opls_145-81    C    0.44779986    0.09950020    0.01460021    -0.12900000
opls_905-82    C    0.58169983    0.16990004    0.67590009    -0.39370000
opls_905-83    C    0.74060002    0.08040009    0.02370012    -0.34260000
opls_528-84    C    0.76209993    0.54460012    0.44569982    -0.01420000
opls_528-85    C    0.72010013    0.50660000    0.47909991    0.06260000
opls_142-86    C    0.68890010    0.51559981    0.58189994    -0.14740000
opls_142-87    C    0.65310012    0.47930002    0.63189994    -0.11680000
opls_700-88    C    0.62129982    0.48680000    0.73479973    0.09980000
opls_145-89    C    0.59540005    0.43980008    0.78090009    -0.11440000
opls_145-90    C    0.56199988    0.44340000    0.87009976    -0.11440000
opls_700-91    C    0.55149983    0.49460012    0.92139965    0.06040000
opls_145-92    C    0.57809991    0.54190017    0.87580033    -0.11290000
opls_145-93    C    0.61230002    0.53820021    0.78639965    -0.11340000
opls_528-94    C    0.04489983    0.78369988    0.11289979    0.02810000
opls_528-95    C    0.00359992    0.78240014    0.03550030    0.13770000
opls_142-96    C    0.01150008    0.82020017    0.94699970    -0.14190000
opls_142-97    C    0.97120020    0.83579998    0.85699970    -0.09700000
opls_700-98    C    0.98539980    0.87249994    0.75930018    0.09900000
opls_145-99    C    0.94299982    0.88099994    0.68569982    -0.11360000
opls_145-100    C    0.94899997    0.91720010    0.60030003    -0.11430000
opls_700-101    C    0.99850017    0.94789991    0.57860035    0.06100000
opls_145-102    C    0.04309987    0.93890010    0.64900015    -0.11290000
opls_145-103    C    0.03829983    0.90330021    0.73590009    -0.11750000
opls_528-104    C    0.95790016    0.71099986    0.13360035    0.00070000
opls_528-105    C    0.99840013    0.71029997    0.21240024    0.06390000
opls_142-106    C    0.99920006    0.66230002    0.29659991    -0.14280000
opls_142-107    C    0.99869984    0.67429990    0.41550030    -0.09790000
opls_700-108    C    0.99899997    0.62550001    0.49800030    0.09940000
opls_145-109    C    0.04779986    0.61080019    0.55340009    -0.11340000
opls_145-110    C    0.04769982    0.57480012    0.64060006    -0.11340000
opls_700-111    C    0.99840013    0.55179996    0.68500000    0.06190000
opls_145-112    C    0.94599990    0.56710005    0.62860035    -0.11750000
opls_145-113    C    0.94619999    0.60210009    0.54150015    -0.11750000
opls_528-114    C    0.73389997    0.45800020    0.32150015    0.01860000
opls_528-115    C    0.77609986    0.49579981    0.28750000    0.06300000
opls_142-116    C    0.79820004    0.49029988    0.17590009    -0.14510000
opls_142-117    C    0.85169992    0.50310012    0.12800030    -0.11670000
opls_700-118    C    0.86350013    0.49679984    0.01780003    0.10000000
opls_145-119    C    0.88410006    0.54910002    0.96229973    -0.11680000
opls_145-120    C    0.92170000    0.54779986    0.87810006    -0.11440000
opls_700-121    C    0.94799995    0.49830008    0.84139965    0.06040000
opls_145-122    C    0.93690005    0.44930011    0.89949970    -0.11360000
opls_145-123    C    0.90049980    0.44779986    0.98539979    -0.12900000
opls_905-124    C    0.83009996    0.58169983    0.32409991    -0.39360000
opls_905-125    C    0.91959991    0.74060002    0.97629988    -0.34270000
opls_528-126    C    0.23790007    0.45539988    0.44569982    -0.01420000
opls_528-127    C    0.27989987    0.49340000    0.47909991    0.06260000
opls_142-128    C    0.31109990    0.48440019    0.58189994    -0.14740000
opls_142-129    C    0.34689988    0.52069998    0.63189994    -0.11680000
opls_700-130    C    0.37870018    0.51320000    0.73479973    0.09980000
opls_145-131    C    0.40459995    0.56019992    0.78090009    -0.11430000
opls_145-132    C    0.43800012    0.55660000    0.87009976    -0.11440000
opls_700-133    C    0.44850017    0.50539988    0.92139965    0.06040000
opls_145-134    C    0.42190009    0.45809983    0.87580033    -0.11280000
opls_145-135    C    0.38769998    0.46179979    0.78639965    -0.11340000
opls_528-136    C    0.95510017    0.21630012    0.11289979    0.02810000
opls_528-137    C    0.99640008    0.21759986    0.03550030    0.13770000
opls_142-138    C    0.98849992    0.17979983    0.94699970    -0.14170000
opls_142-139    C    0.02879980    0.16420002    0.85699970    -0.09700000
opls_700-140    C    0.01460020    0.12750006    0.75930018    0.09900000
opls_145-141    C    0.05700018    0.11900006    0.68569982    -0.11360000
opls_145-142    C    0.05100003    0.08279990    0.60030003    -0.11430000
opls_700-143    C    0.00149983    0.05210009    0.57860035    0.06100000
opls_145-144    C    0.95690013    0.06109990    0.64900015    -0.11290000
opls_145-145    C    0.96170017    0.09669979    0.73590009    -0.11740000
opls_528-146    C    0.04209984    0.28900014    0.13360035    0.00070000
opls_528-147    C    0.00159987    0.28970003    0.21240024    0.06390000
opls_142-148    C    0.00079994    0.33769998    0.29659991    -0.14270000
opls_142-149    C    0.00130016    0.32570010    0.41550030    -0.09790000
opls_700-150    C    0.00100003    0.37449999    0.49800030    0.09940000
opls_145-151    C    0.95220014    0.38919981    0.55340009    -0.11340000
opls_145-152    C    0.95230018    0.42519988    0.64060006    -0.11340000
opls_700-153    C    0.00159987    0.44820004    0.68500000    0.06190000
opls_145-154    C    0.05400010    0.43289995    0.62860035    -0.11750000
opls_145-155    C    0.05380001    0.39789991    0.54150015    -0.11750000
opls_528-156    C    0.26610003    0.54199980    0.32150015    0.01860000
opls_528-157    C    0.22390014    0.50420019    0.28750000    0.06300000
opls_142-158    C    0.20179996    0.50970012    0.17590009    -0.14510000
opls_142-159    C    0.14830008    0.49689988    0.12800030    -0.11680000
opls_700-160    C    0.13649987    0.50320016    0.01780003    0.10000000
opls_145-161    C    0.11589994    0.45089998    0.96229973    -0.11680000
opls_145-162    C    0.07830000    0.45220014    0.87810006    -0.11440000
opls_700-163    C    0.05200005    0.50169992    0.84139965    0.06040000
opls_145-164    C    0.06309995    0.55069989    0.89949970    -0.11360000
opls_145-165    C    0.09950020    0.55220014    0.98539979    -0.12900000
opls_905-166    C    0.16990004    0.41830017    0.32409991    -0.39360000
opls_905-167    C    0.08040009    0.25939998    0.97629988    -0.34260000
opls_701-168    C    0.50000000    0.00000000    0.23689994    0.02520000
opls_701-169    C    0.00000000    0.50000000    0.76310006    0.02520000
opls_701-170    C    0.50000000    0.50000000    0.00000000    0.02520000
opls_701-171    C    0.00000000    0.00000000    0.50000000    0.02540000
opls_527-172    N    0.53600007    0.70790016    0.58610035    -0.28770000
opls_900-173    N    0.25400010    0.96140004    0.95120012    -0.07350000
opls_527-174    N    0.25339983    0.04170008    0.80009976    -0.28320000
opls_900-175    N    0.46080019    0.78890010    0.64710021    -0.06770000
opls_527-176    N    0.46399993    0.29209984    0.58610035    -0.28780000
opls_900-177    N    0.74599990    0.03859996    0.95120012    -0.07330000
opls_527-178    N    0.74660017    0.95829992    0.80009976    -0.28330000
opls_900-179    N    0.53919981    0.21109990    0.64710021    -0.06770000
opls_527-180    N    0.70790016    0.46399993    0.41389965    -0.28780000
opls_900-181    N    0.96140004    0.74599990    0.04879988    -0.07350000
opls_527-182    N    0.04170008    0.74660017    0.19990024    -0.28330000
opls_900-183    N    0.78890010    0.53919981    0.35289979    -0.06770000
opls_527-184    N    0.29209984    0.53600007    0.41389965    -0.28770000
opls_900-185    N    0.03859996    0.25400010    0.04879988    -0.07350000
opls_527-186    N    0.95829992    0.25339983    0.19990024    -0.28300000
opls_900-187    N    0.21109990    0.46080019    0.35289979    -0.06770000
opls_144-188    H    0.56080019    0.64679984    0.40439994    0.09270000
opls_146-189    H    0.60089998    0.59979991    0.25430018    0.09140000
opls_146-190    H    0.59429998    0.54160004    0.10379988    0.09600000
opls_146-191    H    0.41689996    0.57020017    0.09340009    0.09620000
opls_146-192    H    0.42370005    0.62970020    0.24439994    0.09580000
opls_144-193    H    0.44489983    0.69720001    0.38099985    0.09220000
opls_146-194    H    0.42090006    0.77270003    0.50509976    0.08450000
opls_144-195    H    0.14599990    0.93279990    0.10949970    0.07850000
opls_146-196    H    0.13939990    0.90300008    0.30340009    0.09620000
opls_146-197    H    0.07699984    0.91260015    0.44680018    0.09280000
opls_146-198    H    0.03800012    0.08160021    0.36069982    0.10070000
opls_146-199    H    0.10010004    0.07339992    0.21300030    0.08760000
opls_144-200    H    0.15469999    0.04930011    0.05250000    0.09610000
opls_146-201    H    0.18800012    0.08009996    0.89270027    0.09890000
opls_144-202    H    0.29329996    0.03020001    0.56550030    0.04220000
opls_146-203    H    0.37239989    0.08759994    0.47120012    0.09560000
opls_146-204    H    0.43600007    0.08780003    0.32699970    0.09370000
opls_146-205    H    0.44969987    0.90639991    0.34599985    0.09860000
opls_146-206    H    0.38790007    0.90680009    0.49430018    0.09520000
opls_144-207    H    0.36969995    0.96689996    0.72030003    0.04100000
opls_146-208    H    0.31879997    0.92390014    0.85990024    0.08840000
opls_144-209    H    0.48220006    0.88569993    0.82550030    0.09550000
opls_146-210    H    0.41080019    0.86689996    0.01550030    0.09380000
opls_146-211    H    0.41260015    0.93240014    0.15620012    0.09650000
opls_146-212    H    0.58870001    0.95929994    0.11909991    0.09480000
opls_146-213    H    0.58939990    0.89609994    0.97710021    0.20430000
opls_144-214    H    0.52850009    0.76800003    0.87460021    0.08810000
opls_146-215    H    0.57609986    0.72120020    0.72669967    0.08760000
opls_140-216    H    0.40110007    0.82010013    0.75150015    0.10220000
opls_140-217    H    0.43680000    0.87259998    0.67569982    0.08310000
opls_140-218    H    0.38240014    0.83030005    0.62270027    0.12430000
opls_140-219    H    0.26920015    0.93829983    0.09819982    0.10170000
opls_140-220    H    0.22059993    0.89419994    0.02699970    0.11550000
opls_140-221    H    0.29409989    0.89000017    0.00699970    0.13350000
opls_144-222    H    0.43919981    0.35320016    0.40439994    0.09270000
opls_146-223    H    0.39910002    0.40020009    0.25430018    0.09140000
opls_146-224    H    0.40570002    0.45839996    0.10379988    0.09600000
opls_146-225    H    0.58310004    0.42979983    0.09340009    0.09620000
opls_146-226    H    0.57629995    0.37029980    0.24439994    0.09580000
opls_144-227    H    0.55510017    0.30279999    0.38099985    0.09220000
opls_146-228    H    0.57909994    0.22729997    0.50509976    0.08450000
opls_144-229    H    0.85400010    0.06720010    0.10949970    0.07840000
opls_146-230    H    0.86060010    0.09699992    0.30340009    0.09620000
opls_146-231    H    0.92300016    0.08739985    0.44680018    0.09270000
opls_146-232    H    0.96199988    0.91839979    0.36069982    0.10070000
opls_146-233    H    0.89989996    0.92660008    0.21300030    0.08760000
opls_144-234    H    0.84530001    0.95069989    0.05250000    0.09610000
opls_146-235    H    0.81199988    0.91990004    0.89270027    0.09890000
opls_144-236    H    0.70670004    0.96979999    0.56550030    0.04220000
opls_146-237    H    0.62760011    0.91240006    0.47120012    0.09560000
opls_146-238    H    0.56399993    0.91219997    0.32699970    0.09370000
opls_146-239    H    0.55030013    0.09360009    0.34599985    0.09860000
opls_146-240    H    0.61209993    0.09319991    0.49430018    0.09520000
opls_144-241    H    0.63030005    0.03310004    0.72030003    0.04100000
opls_146-242    H    0.68120003    0.07609986    0.85990024    0.08840000
opls_144-243    H    0.51779994    0.11430007    0.82550030    0.09550000
opls_146-244    H    0.58919981    0.13310004    0.01550030    0.09390000
opls_146-245    H    0.58739985    0.06759986    0.15620012    0.09640000
opls_146-246    H    0.41129999    0.04070006    0.11909991    0.09490000
opls_146-247    H    0.41060010    0.10390006    0.97710021    0.20440000
opls_144-248    H    0.47149991    0.23199997    0.87460021    0.08810000
opls_146-249    H    0.42390014    0.27879980    0.72669967    0.08760000
opls_140-250    H    0.59889993    0.17989987    0.75150015    0.10230000
opls_140-251    H    0.56320000    0.12740002    0.67569982    0.08310000
opls_140-252    H    0.61759986    0.16969995    0.62270027    0.12440000
opls_140-253    H    0.73079985    0.06170017    0.09819982    0.10170000
opls_140-254    H    0.77940007    0.10580006    0.02699970    0.11550000
opls_140-255    H    0.70590011    0.10999983    0.00699970    0.13340000
opls_144-256    H    0.64679984    0.43919981    0.59560006    0.09270000
opls_146-257    H    0.59979991    0.39910002    0.74569982    0.09140000
opls_146-258    H    0.54160004    0.40570002    0.89620012    0.09600000
opls_146-259    H    0.57020017    0.58310004    0.90659991    0.09620000
opls_146-260    H    0.62970020    0.57629995    0.75560006    0.09580000
opls_144-261    H    0.69720001    0.55510017    0.61900015    0.09220000
opls_146-262    H    0.77270003    0.57909994    0.49490024    0.08450000
opls_144-263    H    0.93279990    0.85400010    0.89050030    0.07840000
opls_146-264    H    0.90300008    0.86060010    0.69659991    0.09630000
opls_146-265    H    0.91260015    0.92300016    0.55319982    0.09270000
opls_146-266    H    0.08160021    0.96199988    0.63930018    0.10070000
opls_146-267    H    0.07339992    0.89989996    0.78699970    0.08760000
opls_144-268    H    0.04930011    0.84530001    0.94750000    0.09610000
opls_146-269    H    0.08009996    0.81199988    0.10729973    0.09890000
opls_144-270    H    0.03020001    0.70670004    0.43449970    0.04220000
opls_146-271    H    0.08759994    0.62760011    0.52879988    0.09560000
opls_146-272    H    0.08780003    0.56399993    0.67300030    0.09370000
opls_146-273    H    0.90639991    0.55030013    0.65400015    0.09860000
opls_146-274    H    0.90680009    0.61209993    0.50569982    0.09520000
opls_144-275    H    0.96689996    0.63030005    0.27969997    0.04100000
opls_146-276    H    0.92390014    0.68120003    0.14009976    0.08840000
opls_144-277    H    0.88569993    0.51779994    0.17449970    0.09550000
opls_146-278    H    0.86689996    0.58919981    0.98449970    0.09380000
opls_146-279    H    0.93240014    0.58739985    0.84379988    0.09650000
opls_146-280    H    0.95929994    0.41129999    0.88090009    0.09480000
opls_146-281    H    0.89609994    0.41060010    0.02289979    0.20430000
opls_144-282    H    0.76800003    0.47149991    0.12539979    0.08810000
opls_146-283    H    0.72120020    0.42390014    0.27330033    0.08760000
opls_140-284    H    0.82010013    0.59889993    0.24849985    0.10220000
opls_140-285    H    0.87259998    0.56320000    0.32430018    0.08310000
opls_140-286    H    0.83030005    0.61759986    0.37729973    0.12440000
opls_140-287    H    0.93829983    0.73079985    0.90180018    0.10170000
opls_140-288    H    0.89419994    0.77940007    0.97300030    0.11550000
opls_140-289    H    0.89000017    0.70590011    0.99300030    0.13340000
opls_144-290    H    0.35320016    0.56080019    0.59560006    0.09270000
opls_146-291    H    0.40020009    0.60089998    0.74569982    0.09140000
opls_146-292    H    0.45839996    0.59429998    0.89620012    0.09600000
opls_146-293    H    0.42979983    0.41689996    0.90659991    0.09620000
opls_146-294    H    0.37029980    0.42370005    0.75560006    0.09580000
opls_144-295    H    0.30279999    0.44489983    0.61900015    0.09220000
opls_146-296    H    0.22729997    0.42090006    0.49490024    0.08450000
opls_144-297    H    0.06720010    0.14599990    0.89050030    0.07850000
opls_146-298    H    0.09699992    0.13939990    0.69659991    0.09620000
opls_146-299    H    0.08739985    0.07699984    0.55319982    0.09270000
opls_146-300    H    0.91839979    0.03800012    0.63930018    0.10070000
opls_146-301    H    0.92660008    0.10010004    0.78699970    0.08760000
opls_144-302    H    0.95069989    0.15469999    0.94750000    0.09610000
opls_146-303    H    0.91990004    0.18800012    0.10729973    0.09890000
opls_144-304    H    0.96979999    0.29329996    0.43449970    0.04230000
opls_146-305    H    0.91240006    0.37239989    0.52879988    0.09570000
opls_146-306    H    0.91219997    0.43600007    0.67300030    0.09370000
opls_146-307    H    0.09360009    0.44969987    0.65400015    0.09860000
opls_146-308    H    0.09319991    0.38790007    0.50569982    0.09520000
opls_144-309    H    0.03310004    0.36969995    0.27969997    0.04100000
opls_146-310    H    0.07609986    0.31879997    0.14009976    0.08840000
opls_144-311    H    0.11430007    0.48220006    0.17449970    0.09550000
opls_146-312    H    0.13310004    0.41080019    0.98449970    0.09390000
opls_146-313    H    0.06759986    0.41260015    0.84379988    0.09640000
opls_146-314    H    0.04070006    0.58870001    0.88090009    0.09480000
opls_146-315    H    0.10390006    0.58939990    0.02289979    0.20430000
opls_144-316    H    0.23199997    0.52850009    0.12539979    0.08810000
opls_146-317    H    0.27879980    0.57609986    0.27330033    0.08770000
opls_140-318    H    0.17989987    0.40110007    0.24849985    0.10220000
opls_140-319    H    0.12740002    0.43680000    0.32430018    0.08310000
opls_140-320    H    0.16969995    0.38240014    0.37729973    0.12430000
opls_140-321    H    0.06170017    0.26920015    0.90180018    0.10170000
opls_140-322    H    0.10580006    0.22059993    0.97300030    0.11550000
opls_140-323    H    0.10999983    0.29409989    0.99300030    0.13340000
