#======================================================================
# Crystal Data Generated By AuToFF
#----------------------------------------------------------------------

data_AuToFF_phase_1

_cell_length_a                         20.4037
_cell_length_b                         20.1937
_cell_length_c                         9.9416
_cell_angle_alpha                      90.00
_cell_angle_beta                       90.00
_cell_angle_gamma                      120.00
_symmetry_space_group_name_H-M_alt     'P 1'
_symmetry_space_group_IT_number        1

loop_
_space_group_symop_operation_xyz
   'x, y, z'

loop_
   _atom_site_label
   _atom_site_type_symbol
   _atom_site_fract_x
   _atom_site_fract_y
   _atom_site_fract_z
   _atom_site_charge
opls_142-0    C    0.79801973    0.76866995    0.36118029    0.09980000
opls_145-1    C    0.91836997    0.84983984    0.24021988    0.25480000
opls_145-2    C    0.96485970    0.83966958    0.14755975    -0.15240000
opls_700-3    C    0.03930013    0.89880983    0.12115957    0.06460000
opls_145-4    C    0.06613991    0.96891000    0.19133037    0.21800000
opls_145-5    C    0.01734984    0.98121997    0.27491953    -0.14030000
opls_145-6    C    0.94364978    0.92162971    0.30054015    -0.14030000
opls_142-7    C    0.19871030    0.01935012    0.22845015    0.09460000
opls_700-8    C    0.43520991    0.36679978    0.35143035    0.02650000
opls_700-9    C    0.45005003    0.30498975    0.34436006    0.02910000
opls_145-10    C    0.52418009    0.31980998    0.36890038    -0.04840000
opls_700-11    C    0.58564000    0.39517997    0.38231975    -0.00090000
opls_700-12    C    0.57003965    0.45658974    0.39232015    0.02470000
opls_145-13    C    0.49448985    0.44029995    0.38549026    -0.04850000
opls_700-14    C    0.39510976    0.23036997    0.30453951    0.10500000
opls_700-15    C    0.36562998    0.36114971    0.31518971    0.10820000
opls_700-16    C    0.62559963    0.53494973    0.38969985    0.11300000
opls_700-17    C    0.65963010    0.40593004    0.37156997    0.09150000
opls_145-18    C    0.36502010    0.40795997    0.20970970    -0.08270000
opls_145-19    C    0.29743991    0.40386008    0.16870021    -0.08440000
opls_700-20    C    0.22838992    0.35218998    0.23151002    0.06950000
opls_145-21    C    0.22823998    0.30356994    0.33384968    -0.08270000
opls_145-22    C    0.29624997    0.30856014    0.37604007    -0.08270000
opls_145-23    C    0.35232999    0.22019000    0.18699002    -0.08020000
opls_145-24    C    0.28818004    0.14971987    0.15855999    -0.08020000
opls_700-25    C    0.26851003    0.08630990    0.24277983    0.07000000
opls_145-26    C    0.31769975    0.09304985    0.34841977    -0.08270000
opls_145-27    C    0.38024015    0.16485002    0.37976986    -0.08280000
opls_145-28    C    0.67893012    0.56095975    0.28470970    -0.07790000
opls_145-29    C    0.73550974    0.63738988    0.27549992    -0.08020000
opls_700-30    C    0.73933008    0.69211974    0.36887020    0.06670000
opls_145-31    C    0.68375002    0.66722990    0.47099964    -0.08280000
opls_145-32    C    0.62781003    0.58946974    0.48182989    -0.08260000
opls_145-33    C    0.67665982    0.36978007    0.26611008    -0.08270000
opls_145-34    C    0.75068986    0.38483989    0.24454011    -0.08270000
opls_700-35    C    0.81085008    0.43802986    0.32599984    0.07040000
opls_145-36    C    0.79406980    0.47251985    0.43396033    -0.08270000
opls_145-37    C    0.71944987    0.45586982    0.45682989    -0.08270000
opls_142-38    C    0.88590981    0.45658974    0.30204997    0.09980000
opls_145-39    C    0.97046017    0.43198008    0.16608997    0.25460000
opls_145-40    C    0.96844981    0.37066009    0.09544037    -0.14030000
opls_145-41    C    0.03470988    0.36667970    0.08123039    -0.13970000
opls_145-42    C    0.10343994    0.42465002    0.13622958    0.21840000
opls_700-43    C    0.10835008    0.49213987    0.18977026    0.06160000
opls_145-44    C    0.04078993    0.49445971    0.20537036    -0.14170000
opls_142-45    C    0.16104995    0.35100004    0.19910980    0.01950000
opls_143-46    C    0.18007004    0.55906991    0.23735012    -0.30810000
opls_143-47    C    0.08533989    0.88375973    0.02334031    -0.30810000
opls_142-48    C    0.79801973    0.76866995    0.86118029    0.09980000
opls_145-49    C    0.91836997    0.84983984    0.74021988    0.25480000
opls_145-50    C    0.96485970    0.83966958    0.64755975    -0.15240000
opls_700-51    C    0.03930013    0.89880983    0.62115957    0.06460000
opls_145-52    C    0.06613991    0.96891000    0.69133037    0.21800000
opls_145-53    C    0.01734984    0.98121997    0.77491953    -0.14030000
opls_145-54    C    0.94364978    0.92162971    0.80054015    -0.14030000
opls_142-55    C    0.19871030    0.01935012    0.72845015    0.09460000
opls_700-56    C    0.43520991    0.36679978    0.85143035    0.02650000
opls_700-57    C    0.45005003    0.30498975    0.84436006    0.02910000
opls_145-58    C    0.52418009    0.31980998    0.86890038    -0.04840000
opls_700-59    C    0.58564000    0.39517997    0.88231975    -0.00090000
opls_700-60    C    0.57003965    0.45658974    0.89232015    0.02470000
opls_145-61    C    0.49448985    0.44029995    0.88549026    -0.04850000
opls_700-62    C    0.39510976    0.23036997    0.80453951    0.10500000
opls_700-63    C    0.36562998    0.36114971    0.81518971    0.10820000
opls_700-64    C    0.62559963    0.53494973    0.88969985    0.11300000
opls_700-65    C    0.65963010    0.40593004    0.87156997    0.09150000
opls_145-66    C    0.36502010    0.40795997    0.70970970    -0.08270000
opls_145-67    C    0.29743991    0.40386008    0.66870021    -0.08440000
opls_700-68    C    0.22838992    0.35218998    0.73151002    0.06950000
opls_145-69    C    0.22823998    0.30356994    0.83384968    -0.08270000
opls_145-70    C    0.29624997    0.30856014    0.87604007    -0.08270000
opls_145-71    C    0.35232999    0.22019000    0.68699002    -0.08020000
opls_145-72    C    0.28818004    0.14971987    0.65855999    -0.08020000
opls_700-73    C    0.26851003    0.08630990    0.74277983    0.07000000
opls_145-74    C    0.31769975    0.09304985    0.84841977    -0.08270000
opls_145-75    C    0.38024015    0.16485002    0.87976986    -0.08280000
opls_145-76    C    0.67893012    0.56095975    0.78470970    -0.07790000
opls_145-77    C    0.73550974    0.63738988    0.77549992    -0.08020000
opls_700-78    C    0.73933008    0.69211974    0.86887020    0.06670000
opls_145-79    C    0.68375002    0.66722990    0.97099964    -0.08280000
opls_145-80    C    0.62781003    0.58946974    0.98182989    -0.08260000
opls_145-81    C    0.67665982    0.36978007    0.76611008    -0.08270000
opls_145-82    C    0.75068986    0.38483989    0.74454011    -0.08270000
opls_700-83    C    0.81085008    0.43802986    0.82599984    0.07040000
opls_145-84    C    0.79406980    0.47251985    0.93396033    -0.08270000
opls_145-85    C    0.71944987    0.45586982    0.95682989    -0.08270000
opls_142-86    C    0.88590981    0.45658974    0.80204997    0.09990000
opls_145-87    C    0.97046017    0.43198008    0.66608997    0.25470000
opls_145-88    C    0.96844981    0.37066009    0.59544037    -0.14030000
opls_145-89    C    0.03470988    0.36667970    0.58123039    -0.13970000
opls_145-90    C    0.10343994    0.42465002    0.63622958    0.21840000
opls_700-91    C    0.10835008    0.49213987    0.68977026    0.06160000
opls_145-92    C    0.04078993    0.49445971    0.70537036    -0.14160000
opls_142-93    C    0.16104995    0.35100004    0.69910980    0.01950000
opls_143-94    C    0.18007004    0.55906991    0.73735012    -0.30810000
opls_143-95    C    0.08533989    0.88375973    0.52334031    -0.30810000
opls_750-96    N    0.85253984    0.78657968    0.26845981    -0.24210000
opls_750-97    N    0.13853001    0.02586993    0.19142995    -0.24800000
opls_750-98    N    0.90303990    0.42452994    0.19872958    -0.25240000
opls_750-99    N    0.16350977    0.41451980    0.14977971    -0.25220000
opls_750-100    N    0.85253984    0.78657968    0.76845981    -0.24200000
opls_750-101    N    0.13853001    0.02586993    0.69142995    -0.24800000
opls_750-102    N    0.90303990    0.42452994    0.69872958    -0.25240000
opls_750-103    N    0.16350977    0.41451980    0.64977971    -0.25220000
opls_144-104    H    0.80043998    0.81493013    0.43019031    0.02850000
opls_146-105    H    0.94245027    0.78288006    0.09248008    0.04830000
opls_146-106    H    0.03781977    0.03982958    0.32195019    0.04830000
opls_146-107    H    0.90481979    0.93157981    0.36967993    0.04830000
opls_144-108    H    0.19167984    0.96043003    0.24702965    0.02850000
opls_146-109    H    0.53581001    0.27036023    0.37845015    0.04830000
opls_146-110    H    0.48023989    0.48705989    0.40776032    0.04830000
opls_146-111    H    0.42004976    0.44968968    0.15695964    0.04830000
opls_146-112    H    0.29801028    0.44234018    0.08426008    0.04830000
opls_146-113    H    0.17265997    0.25992980    0.38275026    0.04830000
opls_146-114    H    0.29510991    0.26965976    0.46021968    0.04830000
opls_146-115    H    0.36993008    0.26973981    0.11385994    0.04830000
opls_146-116    H    0.25174987    0.14350999    0.06721956    0.04830000
opls_146-117    H    0.30670971    0.04030990    0.40826024    0.04830000
opls_146-118    H    0.41936992    0.17054012    0.46634043    0.04830000
opls_146-119    H    0.67640995    0.51921003    0.20488956    0.04830000
opls_146-120    H    0.77954002    0.65657018    0.19191981    0.04830000
opls_146-121    H    0.68388985    0.71019015    0.54558019    0.04830000
opls_146-122    H    0.58375968    0.56994978    0.56542005    0.04830000
opls_146-123    H    0.62969009    0.32759005    0.19700954    0.04830000
opls_146-124    H    0.76292009    0.35407010    0.16059990    0.04830000
opls_146-125    H    0.84126008    0.51419981    0.50326004    0.04830000
opls_146-126    H    0.70762984    0.48359013    0.54639998    0.04830000
opls_144-127    H    0.93320985    0.49916001    0.37018991    0.02850000
opls_146-128    H    0.91302985    0.32439991    0.04995977    0.04830000
opls_146-129    H    0.03315012    0.31663985    0.02525046    0.04830000
opls_146-130    H    0.04253989    0.54727972    0.25020017    0.04830000
opls_144-131    H    0.10432984    0.29650977    0.21437998    0.02850000
opls_144-132    H    0.23662969    0.56988974    0.19562042    0.11060000
opls_144-133    H    0.05635002    0.83539014    0.94717048    0.11060000
opls_144-134    H    0.17845982    0.59952963    0.31552969    0.11060000
opls_144-135    H    0.14965995    0.92057986    0.02443973    0.11060000
opls_144-136    H    0.80043998    0.81493013    0.93019031    0.02850000
opls_146-137    H    0.94245027    0.78288006    0.59248008    0.04830000
opls_146-138    H    0.03781977    0.03982958    0.82195019    0.04830000
opls_146-139    H    0.90481979    0.93157981    0.86967993    0.04830000
opls_144-140    H    0.19167984    0.96043003    0.74702965    0.02850000
opls_146-141    H    0.53581001    0.27036023    0.87845015    0.04830000
opls_146-142    H    0.48023989    0.48705989    0.90776032    0.04830000
opls_146-143    H    0.42004976    0.44968968    0.65695964    0.04830000
opls_146-144    H    0.29801028    0.44234018    0.58426008    0.04830000
opls_146-145    H    0.17265997    0.25992980    0.88275026    0.04830000
opls_146-146    H    0.29510991    0.26965976    0.96021968    0.04830000
opls_146-147    H    0.36993008    0.26973981    0.61385994    0.04830000
opls_146-148    H    0.25174987    0.14350999    0.56721956    0.04830000
opls_146-149    H    0.30670971    0.04030990    0.90826024    0.04830000
opls_146-150    H    0.41936992    0.17054012    0.96634043    0.04830000
opls_146-151    H    0.67640995    0.51921003    0.70488956    0.04830000
opls_146-152    H    0.77954002    0.65657018    0.69191981    0.04830000
opls_146-153    H    0.68388985    0.71019015    0.04558019    0.04830000
opls_146-154    H    0.58375968    0.56994978    0.06542005    0.04830000
opls_146-155    H    0.62969009    0.32759005    0.69700954    0.04830000
opls_146-156    H    0.76292009    0.35407010    0.66059990    0.04830000
opls_146-157    H    0.84126008    0.51419981    0.00326004    0.04830000
opls_146-158    H    0.70762984    0.48359013    0.04639998    0.04830000
opls_144-159    H    0.93320985    0.49916001    0.87018991    0.02850000
opls_146-160    H    0.91302985    0.32439991    0.54995977    0.04830000
opls_146-161    H    0.03315012    0.31663985    0.52525046    0.04830000
opls_146-162    H    0.04253989    0.54727972    0.75020017    0.04830000
opls_144-163    H    0.10432984    0.29650977    0.71437998    0.02850000
opls_144-164    H    0.23662969    0.56988974    0.69562042    0.11060000
opls_144-165    H    0.05635002    0.83539014    0.44717048    0.11060000
opls_144-166    H    0.17845982    0.59952963    0.81552969    0.11060000
opls_144-167    H    0.14965995    0.92057986    0.52443973    0.11060000
