#======================================================================
# Crystal Data Generated By AuToFF
#----------------------------------------------------------------------

data_AuToFF_phase_1

_cell_length_a                         36.7868
_cell_length_b                         36.7868
_cell_length_c                         3.8660
_cell_angle_alpha                      90.00
_cell_angle_beta                       90.00
_cell_angle_gamma                      120.00
_symmetry_space_group_name_H-M_alt     'P 1'
_symmetry_space_group_IT_number        1

loop_
_space_group_symop_operation_xyz
   'x, y, z'

loop_
   _atom_site_label
   _atom_site_type_symbol
   _atom_site_fract_x
   _atom_site_fract_y
   _atom_site_fract_z
   _atom_site_charge
opls_700-0    C    0.35747000    0.64635998    0.76355923    0.06780000
opls_145-1    C    0.37706011    0.69037017    0.76918003    -0.17030000
opls_700-2    C    0.38305005    0.62517021    0.72115106    0.06790000
opls_523-3    C    0.36622018    0.58621019    0.54974909    -0.17020000
opls_700-4    C    0.38991986    0.56617993    0.49609933    -0.00650000
opls_521-5    C    0.43252993    0.58762991    0.59851009    0.18530000
opls_522-6    C    0.44945006    0.62602995    0.77035954    -0.16890000
opls_523-7    C    0.42483005    0.64425001    0.83830057    -0.12290000
opls_521-8    C    0.44274995    0.53262007    0.38670978    0.18360000
opls_700-9    C    0.47163984    0.51550993    0.35010088    -0.00540000
opls_261-10    C    0.45674004    0.47202989    0.34735903    -0.01280000
opls_142-11    C    0.48479001    0.45684013    0.34593895    -0.17660000
opls_700-12    C    0.37308001    0.52531993    0.34978013    0.03110000
opls_522-13    C    0.40051006    0.50984014    0.28538024    -0.22010000
opls_700-14    C    0.32712983    0.49524990    0.30629074    0.06820000
opls_145-15    C    0.30063993    0.50513995    0.11617951    -0.12240000
opls_145-16    C    0.25772008    0.47645009    0.08750905    -0.09060000
opls_145-17    C    0.24085000    0.43675997    0.23736937    -0.09040000
opls_145-18    C    0.26689011    0.42580018    0.41669943    -0.09220000
opls_145-19    C    0.30963998    0.45486011    0.45290998    -0.13050000
opls_700-20    C    0.35363998    0.71111013    0.76355923    0.06780000
opls_145-21    C    0.30962998    0.68669012    0.76918003    -0.17030000
opls_700-22    C    0.37483013    0.75788005    0.72115106    0.06790000
opls_523-23    C    0.41379001    0.78001023    0.54974909    -0.17030000
opls_700-24    C    0.43382006    0.82374012    0.49609933    -0.00650000
opls_521-25    C    0.41237006    0.84490007    0.59851009    0.18530000
opls_522-26    C    0.37397008    0.82341996    0.77035954    -0.16890000
opls_523-27    C    0.35574986    0.78057994    0.83830057    -0.12290000
opls_521-28    C    0.46738010    0.91013017    0.38670978    0.18360000
opls_700-29    C    0.48449019    0.95613011    0.35010088    -0.00540000
opls_261-30    C    0.52797000    0.98471011    0.34735903    -0.01280000
opls_142-31    C    0.54315993    0.02795002    0.34593895    -0.17660000
opls_700-32    C    0.47468013    0.84776024    0.34978013    0.03110000
opls_522-33    C    0.49016017    0.89067025    0.28538024    -0.22010000
opls_700-34    C    0.50475023    0.83188023    0.30629074    0.06810000
opls_145-35    C    0.49486014    0.79550007    0.11617951    -0.12240000
opls_145-36    C    0.52355016    0.78127019    0.08750905    -0.09060000
opls_145-37    C    0.56324004    0.80408999    0.23736937    -0.09040000
opls_145-38    C    0.57420015    0.84109008    0.41669943    -0.09230000
opls_145-39    C    0.54514015    0.85478007    0.45290998    -0.13050000
opls_700-40    C    0.28889017    0.64253020    0.76355923    0.06780000
opls_145-41    C    0.31331007    0.62294002    0.76918003    -0.17030000
opls_700-42    C    0.24211998    0.61695006    0.72115106    0.06790000
opls_523-43    C    0.21999013    0.63378021    0.54974909    -0.17030000
opls_700-44    C    0.17626009    0.61007995    0.49609933    -0.00650000
opls_521-45    C    0.15510001    0.56747002    0.59851009    0.18530000
opls_522-46    C    0.17658013    0.55055009    0.77035954    -0.16890000
opls_523-47    C    0.21942009    0.57517005    0.83830057    -0.12290000
opls_521-48    C    0.08987010    0.55725007    0.38670978    0.18360000
opls_700-49    C    0.04386998    0.52835996    0.35010088    -0.00540000
opls_261-50    C    0.01528995    0.54326000    0.34735903    -0.01280000
opls_142-51    C    0.97205021    0.51521017    0.34593895    -0.17660000
opls_700-52    C    0.15224001    0.62692014    0.34978013    0.03110000
opls_522-53    C    0.10932992    0.59948993    0.28538024    -0.22010000
opls_700-54    C    0.16812010    0.67287018    0.30629074    0.06810000
opls_145-55    C    0.20449992    0.69935998    0.11617951    -0.12240000
opls_145-56    C    0.21872991    0.74228003    0.08750905    -0.09060000
opls_145-57    C    0.19590996    0.75915005    0.23736937    -0.09040000
opls_145-58    C    0.15890989    0.73311005    0.41669943    -0.09230000
opls_145-59    C    0.14522002    0.69036013    0.45290998    -0.13050000
opls_700-60    C    0.64253000    0.35364002    0.76355923    0.06780000
opls_145-61    C    0.62294005    0.30963014    0.76918003    -0.17030000
opls_700-62    C    0.61695010    0.37483011    0.72115106    0.06790000
opls_523-63    C    0.63377998    0.41379013    0.54974909    -0.17030000
opls_700-64    C    0.61008014    0.43382007    0.49609933    -0.00650000
opls_521-65    C    0.56747007    0.41237009    0.59851009    0.18530000
opls_522-66    C    0.55054994    0.37397005    0.77035954    -0.16890000
opls_523-67    C    0.57516995    0.35574999    0.83830057    -0.12290000
opls_521-68    C    0.55725005    0.46737993    0.38670978    0.18360000
opls_700-69    C    0.52836016    0.48449007    0.35010088    -0.00540000
opls_261-70    C    0.54325996    0.52797011    0.34735903    -0.01280000
opls_142-71    C    0.51521014    0.54316018    0.34593895    -0.17660000
opls_700-72    C    0.62691999    0.47468007    0.34978013    0.03110000
opls_522-73    C    0.59949009    0.49016018    0.28538024    -0.22010000
opls_700-74    C    0.67287017    0.50475010    0.30629074    0.06810000
opls_145-75    C    0.69936007    0.49486005    0.11617951    -0.12240000
opls_145-76    C    0.74227992    0.52354991    0.08750905    -0.09060000
opls_145-77    C    0.75915000    0.56324003    0.23736937    -0.09040000
opls_145-78    C    0.73311005    0.57420013    0.41669943    -0.09230000
opls_145-79    C    0.69036018    0.54514020    0.45290998    -0.13040000
opls_700-80    C    0.64636018    0.28889018    0.76355923    0.06780000
opls_145-81    C    0.69037018    0.31331019    0.76918003    -0.17030000
opls_700-82    C    0.62516987    0.24211995    0.72115106    0.06790000
opls_523-83    C    0.58621015    0.21999008    0.54974909    -0.17030000
opls_700-84    C    0.56617994    0.17625988    0.49609933    -0.00650000
opls_521-85    C    0.58762994    0.15509993    0.59851009    0.18530000
opls_522-86    C    0.62602992    0.17658004    0.77035954    -0.16880000
opls_523-87    C    0.64425014    0.21942006    0.83830057    -0.12290000
opls_521-88    C    0.53262006    0.08987014    0.38670978    0.18370000
opls_700-89    C    0.51550981    0.04386989    0.35010088    -0.00540000
opls_261-90    C    0.47203000    0.01528989    0.34735903    -0.01280000
opls_142-91    C    0.45684007    0.97204998    0.34593895    -0.17660000
opls_700-92    C    0.52532002    0.15224008    0.34978013    0.03110000
opls_522-93    C    0.50983999    0.10933006    0.28538024    -0.22010000
opls_700-94    C    0.49524992    0.16812008    0.30629074    0.06810000
opls_145-95    C    0.50513986    0.20449993    0.11617951    -0.12230000
opls_145-96    C    0.47645000    0.21873013    0.08750905    -0.09060000
opls_145-97    C    0.43675996    0.19591001    0.23736937    -0.09040000
opls_145-98    C    0.42579985    0.15890992    0.41669943    -0.09230000
opls_145-99    C    0.45485985    0.14521993    0.45290998    -0.13050000
opls_700-100    C    0.71110998    0.35747011    0.76355923    0.06780000
opls_145-101    C    0.68668993    0.37705998    0.76918003    -0.17030000
opls_700-102    C    0.75788002    0.38304994    0.72115106    0.06790000
opls_523-103    C    0.78001003    0.36622011    0.54974909    -0.17030000
opls_700-104    C    0.82373991    0.38992005    0.49609933    -0.00650000
opls_521-105    C    0.84489999    0.43252998    0.59851009    0.18530000
opls_522-106    C    0.82341987    0.44944991    0.77035954    -0.16890000
opls_523-107    C    0.78057991    0.42482995    0.83830057    -0.12290000
opls_521-108    C    0.91012990    0.44274993    0.38670978    0.18370000
opls_700-109    C    0.95613002    0.47164004    0.35010088    -0.00540000
opls_261-110    C    0.98471005    0.45674000    0.34735903    -0.01280000
opls_142-111    C    0.02794995    0.48479015    0.34593895    -0.17660000
opls_700-112    C    0.84776014    0.37308017    0.34978013    0.03120000
opls_522-113    C    0.89067008    0.40051007    0.28538024    -0.22000000
opls_700-114    C    0.83188006    0.32713014    0.30629074    0.06810000
opls_145-115    C    0.79550008    0.30064002    0.11617951    -0.12240000
opls_145-116    C    0.78127009    0.25771997    0.08750905    -0.09060000
opls_145-117    C    0.80409004    0.24084995    0.23736937    -0.09030000
opls_145-118    C    0.84109011    0.26688995    0.41669943    -0.09230000
opls_145-119    C    0.85478013    0.30964019    0.45290998    -0.13050000
opls_520-120    N    0.45719005    0.57053013    0.54145887    -0.29790000
opls_520-121    N    0.42946986    0.88665999    0.54145887    -0.29780000
opls_520-122    N    0.11333998    0.54281019    0.54145887    -0.29790000
opls_520-123    N    0.54281011    0.42947019    0.54145887    -0.29790000
opls_520-124    N    0.57053014    0.11334001    0.54145887    -0.29780000
opls_520-125    N    0.88666018    0.45719012    0.54145887    -0.29790000
opls_146-126    H    0.41077995    0.70854000    0.76662959    0.11690000
opls_526-127    H    0.33480996    0.57210994    0.45464046    0.10990000
opls_525-128    H    0.48164996    0.64125016    0.85919038    0.11720000
opls_526-129    H    0.43859996    0.67302995    0.98651061    0.11830000
opls_144-130    H    0.47245002    0.42324010    0.35078893    0.11310000
opls_525-131    H    0.38847007    0.47971015    0.16002069    0.12120000
opls_146-132    H    0.31292988    0.53471999    0.98602949    0.10710000
opls_146-133    H    0.23773005    0.48466993    0.94159079    0.11740000
opls_146-134    H    0.20767994    0.41438997    0.21191930    0.11760000
opls_146-135    H    0.25383987    0.39506000    0.53387998    0.11760000
opls_146-136    H    0.32903012    0.44614998    0.60215986    0.11750000
opls_146-137    H    0.29145997    0.70223992    0.76662959    0.11690000
opls_526-138    H    0.42789014    0.76270014    0.45464046    0.10990000
opls_525-139    H    0.35875004    0.84040015    0.85919038    0.11720000
opls_526-140    H    0.32696989    0.76557004    0.98651061    0.11830000
opls_144-141    H    0.57676017    0.04921010    0.35078893    0.11310000
opls_525-142    H    0.52029007    0.90876004    0.16002069    0.12120000
opls_146-143    H    0.46527991    0.77821007    0.98602949    0.10710000
opls_146-144    H    0.51533004    0.75305996    0.94159079    0.11740000
opls_146-145    H    0.58561005    0.79328997    0.21191930    0.11760000
opls_146-146    H    0.60493991    0.85877997    0.53387998    0.11760000
opls_146-147    H    0.55384995    0.88288013    0.60215986    0.11740000
opls_146-148    H    0.29776008    0.58922008    0.76662959    0.11700000
opls_526-149    H    0.23729991    0.66518992    0.45464046    0.11000000
opls_525-150    H    0.15959988    0.51835001    0.85919038    0.11720000
opls_526-151    H    0.23442988    0.56140001    0.98651061    0.11840000
opls_144-152    H    0.95078997    0.52755012    0.35078893    0.11320000
opls_525-153    H    0.09124001    0.61153012    0.16002069    0.12120000
opls_146-154    H    0.22178994    0.68706993    0.98602949    0.10710000
opls_146-155    H    0.24694018    0.76227011    0.94159079    0.11740000
opls_146-156    H    0.20671001    0.79232005    0.21191930    0.11760000
opls_146-157    H    0.14121994    0.74616003    0.53387998    0.11760000
opls_146-158    H    0.11712009    0.67097020    0.60215986    0.11740000
opls_146-159    H    0.58922005    0.29146000    0.76662959    0.11700000
opls_526-160    H    0.66519004    0.42789006    0.45464046    0.10990000
opls_525-161    H    0.51835020    0.35875015    0.85919038    0.11720000
opls_526-162    H    0.56140004    0.32697005    0.98651061    0.11830000
opls_144-163    H    0.52755014    0.57676022    0.35078893    0.11310000
opls_525-164    H    0.61153009    0.52029016    0.16002069    0.12120000
opls_146-165    H    0.68707012    0.46528001    0.98602949    0.10710000
opls_146-166    H    0.76226995    0.51533007    0.94159079    0.11750000
opls_146-167    H    0.79232006    0.58561003    0.21191930    0.11760000
opls_146-168    H    0.74616013    0.60494000    0.53387998    0.11760000
opls_146-169    H    0.67096988    0.55385002    0.60215986    0.11740000
opls_146-170    H    0.70854003    0.29776008    0.76662959    0.11700000
opls_526-171    H    0.57211002    0.23730017    0.45464046    0.10990000
opls_525-172    H    0.64125011    0.15960017    0.85919038    0.11720000
opls_526-173    H    0.67303011    0.23442996    0.98651061    0.11830000
opls_144-174    H    0.42323999    0.95079022    0.35078893    0.11310000
opls_525-175    H    0.47970993    0.09123996    0.16002069    0.12120000
opls_146-176    H    0.53472009    0.22178993    0.98602949    0.10710000
opls_146-177    H    0.48466996    0.24694004    0.94159079    0.11750000
opls_146-178    H    0.41438995    0.20671003    0.21191930    0.11760000
opls_146-179    H    0.39506009    0.14122003    0.53387998    0.11760000
opls_146-180    H    0.44615005    0.11711987    0.60215986    0.11740000
opls_146-181    H    0.70223992    0.41077992    0.76662959    0.11690000
opls_526-182    H    0.76270009    0.33481008    0.45464046    0.10990000
opls_525-183    H    0.84040012    0.48164999    0.85919038    0.11720000
opls_526-184    H    0.76557012    0.43859999    0.98651061    0.11840000
opls_144-185    H    0.04921019    0.47245019    0.35078893    0.11310000
opls_525-186    H    0.90876014    0.38847019    0.16002069    0.12120000
opls_146-187    H    0.77821006    0.31293007    0.98602949    0.10720000
opls_146-188    H    0.75305982    0.23772989    0.94159079    0.11740000
opls_146-189    H    0.79328999    0.20767995    0.21191930    0.11760000
opls_146-190    H    0.85878006    0.25383997    0.53387998    0.11760000
opls_146-191    H    0.88288007    0.32903011    0.60215986    0.11740000
