#======================================================================
# Crystal Data Generated By AuToFF
#----------------------------------------------------------------------

data_AuToFF_phase_1

_cell_length_a                         14.3050
_cell_length_b                         19.3039
_cell_length_c                         33.0385
_cell_angle_alpha                      90.00
_cell_angle_beta                       90.00
_cell_angle_gamma                      90.00
_symmetry_space_group_name_H-M_alt     'P 1'
_symmetry_space_group_IT_number        1

loop_
_space_group_symop_operation_xyz
   'x, y, z'

loop_
   _atom_site_label
   _atom_site_type_symbol
   _atom_site_fract_x
   _atom_site_fract_y
   _atom_site_fract_z
   _atom_site_charge
opls_700-0    C    0.34400000    0.56469004    0.38263995    0.05800000
opls_142-1    C    0.33019993    0.62893975    0.36165988    0.05030000
opls_145-2    C    0.81892974    0.74353991    0.24234000    -0.20850000
opls_145-3    C    0.76813981    0.80655981    0.24337001    0.16900000
opls_145-4    C    0.61898986    0.56255005    0.62102002    -0.19790000
opls_145-5    C    0.69964977    0.18870021    0.77002013    -0.19900000
opls_700-6    C    0.65688990    0.56469004    0.66115986    0.05800000
opls_142-7    C    0.67085984    0.62893975    0.68211995    0.04330000
opls_145-8    C    0.17967983    0.74357979    0.80135993    -0.20810000
opls_145-9    C    0.23051031    0.80658002    0.80033991    0.16900000
opls_145-10    C    0.38144984    0.56255990    0.42285001    -0.19790000
opls_145-11    C    0.30173016    0.18874010    0.27367011    -0.20950000
opls_700-12    C    0.84400000    0.06469004    0.88263995    0.05800000
opls_142-13    C    0.83019993    0.12893975    0.86165988    0.05030000
opls_145-14    C    0.31892974    0.24353991    0.74234000    -0.20850000
opls_145-15    C    0.26813981    0.30655981    0.74337001    0.16900000
opls_145-16    C    0.11898986    0.06255005    0.12102002    -0.19790000
opls_145-17    C    0.19964977    0.68870021    0.27002013    -0.19910000
opls_700-18    C    0.15688990    0.06469004    0.16115986    0.05800000
opls_142-19    C    0.17085984    0.12893975    0.18211995    0.04330000
opls_145-20    C    0.67967983    0.24357979    0.30135993    -0.20800000
opls_145-21    C    0.73051031    0.30658002    0.30033991    0.16900000
opls_145-22    C    0.88144984    0.06255990    0.92285001    -0.19790000
opls_145-23    C    0.80173016    0.68874010    0.77367011    -0.20940000
opls_700-24    C    0.65600000    0.43530996    0.38263995    0.05800000
opls_142-25    C    0.66980007    0.37106025    0.36165988    0.05030000
opls_145-26    C    0.18107026    0.25646009    0.24234000    -0.20850000
opls_145-27    C    0.23186019    0.19344019    0.24337001    0.16900000
opls_145-28    C    0.38101014    0.43744995    0.62102002    -0.19790000
opls_145-29    C    0.30035023    0.81129979    0.77002013    -0.19910000
opls_700-30    C    0.34311010    0.43530996    0.66115986    0.05800000
opls_142-31    C    0.32914016    0.37106025    0.68211995    0.04330000
opls_145-32    C    0.82032017    0.25642021    0.80135993    -0.20800000
opls_145-33    C    0.76948969    0.19341998    0.80033991    0.16900000
opls_145-34    C    0.61855016    0.43744010    0.42285001    -0.19790000
opls_145-35    C    0.69826984    0.81125990    0.27367011    -0.20950000
opls_700-36    C    0.15600000    0.93530996    0.88263995    0.05800000
opls_142-37    C    0.16980007    0.87106025    0.86165988    0.05030000
opls_145-38    C    0.68107026    0.75646009    0.74234000    -0.20850000
opls_145-39    C    0.73186019    0.69344019    0.74337001    0.16910000
opls_145-40    C    0.88101014    0.93744995    0.12102002    -0.19790000
opls_145-41    C    0.80035023    0.31129979    0.27002013    -0.19910000
opls_700-42    C    0.84311010    0.93530996    0.16115986    0.05800000
opls_142-43    C    0.82914016    0.87106025    0.18211995    0.04330000
opls_145-44    C    0.32032017    0.75642021    0.30135993    -0.20810000
opls_145-45    C    0.26948969    0.69341998    0.30033991    0.16900000
opls_145-46    C    0.11855016    0.93744010    0.92285001    -0.19790000
opls_145-47    C    0.19826984    0.31125990    0.77367011    -0.20950000
opls_700-48    C    0.34400000    0.43530996    0.38263995    0.05800000
opls_142-49    C    0.33019993    0.37106025    0.36165988    0.05030000
opls_145-50    C    0.81892974    0.25646009    0.24234000    -0.20850000
opls_145-51    C    0.76813981    0.19344019    0.24337001    0.16900000
opls_145-52    C    0.61898986    0.43744995    0.62102002    -0.19790000
opls_145-53    C    0.69964977    0.81129979    0.77002013    -0.19910000
opls_700-54    C    0.65688990    0.43530996    0.66115986    0.05800000
opls_142-55    C    0.67085984    0.37106025    0.68211995    0.04330000
opls_145-56    C    0.17967983    0.25642021    0.80135993    -0.20810000
opls_145-57    C    0.23051031    0.19341998    0.80033991    0.16900000
opls_145-58    C    0.38144984    0.43744010    0.42285001    -0.19790000
opls_145-59    C    0.30173016    0.81125990    0.27367011    -0.20950000
opls_700-60    C    0.84400000    0.93530996    0.88263995    0.05800000
opls_142-61    C    0.83019993    0.87106025    0.86165988    0.05030000
opls_145-62    C    0.31892974    0.75646009    0.74234000    -0.20850000
opls_145-63    C    0.26813981    0.69344019    0.74337001    0.16900000
opls_145-64    C    0.11898986    0.93744995    0.12102002    -0.19790000
opls_145-65    C    0.19964977    0.31129979    0.27002013    -0.19910000
opls_700-66    C    0.15688990    0.93530996    0.16115986    0.05800000
opls_142-67    C    0.17085984    0.87106025    0.18211995    0.04330000
opls_145-68    C    0.67967983    0.75642021    0.30135993    -0.20810000
opls_145-69    C    0.73051031    0.69341998    0.30033991    0.16900000
opls_145-70    C    0.88144984    0.93744010    0.92285001    -0.19790000
opls_145-71    C    0.80173016    0.31125990    0.77367011    -0.20940000
opls_700-72    C    0.65600000    0.56469004    0.38263995    0.05800000
opls_142-73    C    0.66980007    0.62893975    0.36165988    0.05030000
opls_145-74    C    0.18107026    0.74353991    0.24234000    -0.20850000
opls_145-75    C    0.23186019    0.80655981    0.24337001    0.16900000
opls_145-76    C    0.38101014    0.56255005    0.62102002    -0.19790000
opls_145-77    C    0.30035023    0.18870021    0.77002013    -0.19910000
opls_700-78    C    0.34311010    0.56469004    0.66115986    0.05800000
opls_142-79    C    0.32914016    0.62893975    0.68211995    0.04330000
opls_145-80    C    0.82032017    0.74357979    0.80135993    -0.20810000
opls_145-81    C    0.76948969    0.80658002    0.80033991    0.16900000
opls_145-82    C    0.61855016    0.56255990    0.42285001    -0.19790000
opls_145-83    C    0.69826984    0.18874010    0.27367011    -0.20950000
opls_700-84    C    0.15600000    0.06469004    0.88263995    0.05800000
opls_142-85    C    0.16980007    0.12893975    0.86165988    0.05030000
opls_145-86    C    0.68107026    0.24353991    0.74234000    -0.20850000
opls_145-87    C    0.73186019    0.30655981    0.74337001    0.16900000
opls_145-88    C    0.88101014    0.06255005    0.12102002    -0.19790000
opls_145-89    C    0.80035023    0.68870021    0.27002013    -0.19910000
opls_700-90    C    0.84311010    0.06469004    0.16115986    0.05800000
opls_142-91    C    0.82914016    0.12893975    0.18211995    0.04330000
opls_145-92    C    0.32032017    0.24357979    0.30135993    -0.20810000
opls_145-93    C    0.26948969    0.30658002    0.30033991    0.16900000
opls_145-94    C    0.11855016    0.06255990    0.92285001    -0.19790000
opls_145-95    C    0.19826984    0.68874010    0.77367011    -0.20950000
opls_700-96    C    0.44960993    0.50000000    0.48314996    -0.03350000
opls_145-97    C    0.32364977    0.50000000    0.67988014    -0.22410000
opls_700-98    C    0.40174974    0.50000000    0.59974999    0.05850000
opls_700-99    C    0.55030968    0.50000000    0.56079998    -0.03370000
opls_145-100    C    0.67521007    0.50000000    0.36387003    -0.22420000
opls_700-101    C    0.59792031    0.50000000    0.44413003    0.05820000
opls_700-102    C    0.40157987    0.50000000    0.52200009    0.04520000
opls_148-103    C    0.29710031    0.50000000    0.52329010    -0.47410000
opls_700-104    C    0.94960993    0.00000000    0.98314996    -0.03350000
opls_145-105    C    0.82364977    0.00000000    0.17988014    -0.22410000
opls_700-106    C    0.90174974    0.00000000    0.09974999    0.05850000
opls_700-107    C    0.05030968    0.00000000    0.06079998    -0.03370000
opls_145-108    C    0.17521007    0.00000000    0.86387003    -0.22420000
opls_700-109    C    0.09792031    0.00000000    0.94413003    0.05820000
opls_700-110    C    0.90157987    0.00000000    0.02200009    0.04520000
opls_148-111    C    0.79710031    0.00000000    0.02329010    -0.47410000
opls_700-112    C    0.55039007    0.50000000    0.48314996    -0.03350000
opls_145-113    C    0.67635023    0.50000000    0.67988014    -0.22410000
opls_700-114    C    0.59825026    0.50000000    0.59974999    0.05860000
opls_700-115    C    0.44969032    0.50000000    0.56079998    -0.03370000
opls_145-116    C    0.32478993    0.50000000    0.36387003    -0.22420000
opls_700-117    C    0.40207969    0.50000000    0.44413003    0.05820000
opls_700-118    C    0.59842013    0.50000000    0.52200009    0.04520000
opls_148-119    C    0.70289969    0.50000000    0.52329010    -0.47410000
opls_700-120    C    0.05039007    0.00000000    0.98314996    -0.03350000
opls_145-121    C    0.17635023    0.00000000    0.17988014    -0.22410000
opls_700-122    C    0.09825026    0.00000000    0.09974999    0.05850000
opls_700-123    C    0.94969032    0.00000000    0.06079998    -0.03370000
opls_145-124    C    0.82478993    0.00000000    0.86387003    -0.22420000
opls_700-125    C    0.90207969    0.00000000    0.94413003    0.05830000
opls_700-126    C    0.09842013    0.00000000    0.02200009    0.04520000
opls_148-127    C    0.20289969    0.00000000    0.02329010    -0.47420000
opls_750-128    N    0.28276966    0.63740021    0.71820997    -0.37480000
opls_750-129    N    0.71596994    0.63738985    0.32550994    -0.37490000
opls_750-130    N    0.78276966    0.13740021    0.21820997    -0.37480000
opls_750-131    N    0.21596994    0.13738985    0.82550994    -0.37490000
opls_750-132    N    0.71723034    0.36259979    0.71820997    -0.37470000
opls_750-133    N    0.28403006    0.36261015    0.32550994    -0.37480000
opls_750-134    N    0.21723034    0.86259979    0.21820997    -0.37480000
opls_750-135    N    0.78403006    0.86261015    0.82550994    -0.37470000
opls_750-136    N    0.28276966    0.36259979    0.71820997    -0.37480000
opls_750-137    N    0.71596994    0.36261015    0.32550994    -0.37480000
opls_750-138    N    0.78276966    0.86259979    0.21820997    -0.37480000
opls_750-139    N    0.21596994    0.86261015    0.82550994    -0.37490000
opls_750-140    N    0.71723034    0.63740021    0.71820997    -0.37480000
opls_750-141    N    0.28403006    0.63738985    0.32550994    -0.37480000
opls_750-142    N    0.21723034    0.13740021    0.21820997    -0.37480000
opls_750-143    N    0.78403006    0.13738985    0.82550994    -0.37490000
opls_144-144    H    0.35734988    0.67253975    0.37473009    0.10240000
opls_146-145    H    0.87095002    0.73741006    0.22150007    0.21090000
opls_146-146    H    0.60412024    0.60836981    0.60683990    0.21100000
opls_146-147    H    0.66088990    0.14431022    0.76817985    0.21100000
opls_144-148    H    0.64363999    0.67253975    0.66907002    0.10270000
opls_146-149    H    0.12767005    0.73745979    0.82219986    0.21090000
opls_146-150    H    0.39606991    0.60838017    0.43709006    0.21090000
opls_146-151    H    0.34051031    0.14435995    0.27552008    0.21090000
opls_702-152    H    0.27235023    0.54596014    0.53927993    0.10580000
opls_144-153    H    0.85734988    0.17253975    0.87473009    0.10240000
opls_146-154    H    0.37095002    0.23741006    0.72150007    0.21090000
opls_146-155    H    0.10412024    0.10836981    0.10683990    0.21090000
opls_146-156    H    0.16088990    0.64431022    0.26817985    0.21090000
opls_144-157    H    0.14363999    0.17253975    0.16907002    0.10270000
opls_146-158    H    0.62767005    0.23745979    0.32219986    0.21090000
opls_146-159    H    0.89606991    0.10838017    0.93709006    0.21090000
opls_146-160    H    0.84051031    0.64435995    0.77552008    0.21090000
opls_702-161    H    0.77235023    0.04596014    0.03927993    0.10580000
opls_144-162    H    0.64265012    0.32746025    0.37473009    0.10240000
opls_146-163    H    0.12904998    0.26258994    0.22150007    0.21100000
opls_146-164    H    0.39587976    0.39163019    0.60683990    0.21090000
opls_146-165    H    0.33911010    0.85568978    0.76817985    0.21090000
opls_144-166    H    0.35636001    0.32746025    0.66907002    0.10270000
opls_146-167    H    0.87232995    0.26254021    0.82219986    0.21090000
opls_146-168    H    0.60393009    0.39161983    0.43709006    0.21090000
opls_146-169    H    0.65948969    0.85564005    0.27552008    0.21090000
opls_702-170    H    0.72764977    0.45403986    0.53927993    0.10580000
opls_144-171    H    0.14265012    0.82746025    0.87473009    0.10240000
opls_146-172    H    0.62904998    0.76258994    0.72150007    0.21090000
opls_146-173    H    0.89587976    0.89163019    0.10683990    0.21090000
opls_146-174    H    0.83911010    0.35568978    0.26817985    0.21090000
opls_144-175    H    0.85636001    0.82746025    0.16907002    0.10270000
opls_146-176    H    0.37232995    0.76254021    0.32219986    0.21090000
opls_146-177    H    0.10393009    0.89161983    0.93709006    0.21110000
opls_146-178    H    0.15948969    0.35564005    0.77552008    0.21100000
opls_702-179    H    0.22764977    0.95403986    0.03927993    0.10580000
opls_144-180    H    0.35734988    0.32746025    0.37473009    0.10240000
opls_146-181    H    0.87095002    0.26258994    0.22150007    0.21100000
opls_146-182    H    0.60412024    0.39163019    0.60683990    0.21100000
opls_146-183    H    0.66088990    0.85568978    0.76817985    0.21090000
opls_144-184    H    0.64363999    0.32746025    0.66907002    0.10270000
opls_146-185    H    0.12767005    0.26254021    0.82219986    0.21090000
opls_146-186    H    0.39606991    0.39161983    0.43709006    0.21090000
opls_146-187    H    0.34051031    0.85564005    0.27552008    0.21090000
opls_702-188    H    0.27235023    0.45403986    0.53927993    0.10580000
opls_144-189    H    0.85734988    0.82746025    0.87473009    0.10240000
opls_146-190    H    0.37095002    0.76258994    0.72150007    0.21100000
opls_146-191    H    0.10412024    0.89163019    0.10683990    0.21090000
opls_146-192    H    0.16088990    0.35568978    0.26817985    0.21090000
opls_144-193    H    0.14363999    0.82746025    0.16907002    0.10270000
opls_146-194    H    0.62767005    0.76254021    0.32219986    0.21090000
opls_146-195    H    0.89606991    0.89161983    0.93709006    0.21090000
opls_146-196    H    0.84051031    0.35564005    0.77552008    0.21090000
opls_702-197    H    0.77235023    0.95403986    0.03927993    0.10580000
opls_144-198    H    0.64265012    0.67253975    0.37473009    0.10240000
opls_146-199    H    0.12904998    0.73741006    0.22150007    0.21100000
opls_146-200    H    0.39587976    0.60836981    0.60683990    0.21090000
opls_146-201    H    0.33911010    0.14431022    0.76817985    0.21090000
opls_144-202    H    0.35636001    0.67253975    0.66907002    0.10270000
opls_146-203    H    0.87232995    0.73745979    0.82219986    0.21100000
opls_146-204    H    0.60393009    0.60838017    0.43709006    0.21090000
opls_146-205    H    0.65948969    0.14435995    0.27552008    0.21090000
opls_702-206    H    0.72764977    0.54596014    0.53927993    0.10580000
opls_144-207    H    0.14265012    0.17253975    0.87473009    0.10240000
opls_146-208    H    0.62904998    0.23741006    0.72150007    0.21090000
opls_146-209    H    0.89587976    0.10836981    0.10683990    0.21090000
opls_146-210    H    0.83911010    0.64431022    0.26817985    0.21100000
opls_144-211    H    0.85636001    0.17253975    0.16907002    0.10270000
opls_146-212    H    0.37232995    0.23745979    0.32219986    0.21090000
opls_146-213    H    0.10393009    0.10838017    0.93709006    0.21090000
opls_146-214    H    0.15948969    0.64435995    0.77552008    0.21090000
opls_702-215    H    0.22764977    0.04596014    0.03927993    0.10590000
opls_146-216    H    0.29623978    0.50000000    0.70850008    0.21090000
opls_146-217    H    0.70225026    0.50000000    0.33518985    0.21090000
opls_702-218    H    0.26396994    0.50000000    0.49360988    0.09880000
opls_146-219    H    0.79623978    0.00000000    0.20850008    0.21100000
opls_146-220    H    0.20225026    0.00000000    0.83518985    0.21090000
opls_702-221    H    0.76396994    0.00000000    0.99360988    0.09880000
opls_146-222    H    0.70376022    0.50000000    0.70850008    0.21100000
opls_146-223    H    0.29774974    0.50000000    0.33518985    0.21090000
opls_702-224    H    0.73603006    0.50000000    0.49360988    0.09880000
opls_146-225    H    0.20376022    0.00000000    0.20850008    0.21090000
opls_146-226    H    0.79774974    0.00000000    0.83518985    0.21090000
opls_702-227    H    0.23603006    0.00000000    0.99360988    0.09880000
