#======================================================================
# Crystal Data Generated By AuToFF
#----------------------------------------------------------------------

data_AuToFF_phase_1

_cell_length_a                         34.0215
_cell_length_b                         33.0439
_cell_length_c                         6.6026
_cell_angle_alpha                      90.00
_cell_angle_beta                       90.00
_cell_angle_gamma                      90.00
_symmetry_space_group_name_H-M_alt     'P 1'
_symmetry_space_group_IT_number        1

loop_
_space_group_symop_operation_xyz
   'x, y, z'

loop_
   _atom_site_label
   _atom_site_type_symbol
   _atom_site_fract_x
   _atom_site_fract_y
   _atom_site_fract_z
   _atom_site_charge
opls_700-0    C    0.46372000    0.95707014    0.39576985    0.02620000
opls_145-1    C    0.42811987    0.02115005    0.37983067    -0.07750000
opls_700-2    C    0.46418000    0.08531015    0.42814952    0.03470000
opls_145-3    C    0.41408991    0.09994008    0.67678945    -0.07750000
opls_700-4    C    0.43070999    0.10732995    0.48446067    0.11220000
opls_145-5    C    0.38253986    0.12346000    0.74561991    -0.07590000
opls_700-6    C    0.36699999    0.15485006    0.62376034    -0.00390000
opls_145-7    C    0.38383992    0.16162015    0.42948990    -0.07570000
opls_145-8    C    0.41525006    0.13793015    0.35970981    -0.07360000
opls_141-9    C    0.33578002    0.17878005    0.69634992    0.53420000
opls_145-10    C    0.78133004    0.27827012    0.57925969    0.27020000
opls_145-11    C    0.76549006    0.26402997    0.39570018    -0.12890000
opls_145-12    C    0.73454992    0.23595005    0.76312059    -0.12870000
opls_700-13    C    0.96372000    0.45707014    0.39576985    0.02620000
opls_145-14    C    0.92811987    0.52115005    0.37983067    -0.07750000
opls_700-15    C    0.96418000    0.58531015    0.42814952    0.03470000
opls_145-16    C    0.91408991    0.59994008    0.67678945    -0.07750000
opls_700-17    C    0.93070999    0.60732995    0.48446067    0.11230000
opls_145-18    C    0.88253986    0.62346000    0.74561991    -0.07590000
opls_700-19    C    0.86699999    0.65485006    0.62376034    -0.00390000
opls_145-20    C    0.88383992    0.66162015    0.42948990    -0.07580000
opls_145-21    C    0.91525006    0.63793015    0.35970981    -0.07360000
opls_141-22    C    0.83578002    0.67878005    0.69634992    0.53420000
opls_145-23    C    0.28133004    0.77827012    0.57925969    0.27020000
opls_145-24    C    0.26549006    0.76402997    0.39570018    -0.12890000
opls_145-25    C    0.23454992    0.73595005    0.76312059    -0.12880000
opls_700-26    C    0.53628000    0.04292986    0.39576985    0.02620000
opls_145-27    C    0.57188013    0.97884995    0.37983067    -0.07750000
opls_700-28    C    0.53582000    0.91468985    0.42814952    0.03470000
opls_145-29    C    0.58591009    0.90005992    0.67678945    -0.07750000
opls_700-30    C    0.56929001    0.89267005    0.48446067    0.11220000
opls_145-31    C    0.61746014    0.87654000    0.74561991    -0.07590000
opls_700-32    C    0.63300001    0.84514994    0.62376034    -0.00390000
opls_145-33    C    0.61616008    0.83837985    0.42948990    -0.07580000
opls_145-34    C    0.58474994    0.86206985    0.35970981    -0.07360000
opls_141-35    C    0.66421998    0.82121995    0.69634992    0.53420000
opls_145-36    C    0.21866996    0.72172988    0.57925969    0.27020000
opls_145-37    C    0.23450994    0.73597003    0.39570018    -0.12890000
opls_145-38    C    0.26545008    0.76404995    0.76312059    -0.12880000
opls_700-39    C    0.03628000    0.54292986    0.39576985    0.02620000
opls_145-40    C    0.07188013    0.47884995    0.37983067    -0.07750000
opls_700-41    C    0.03582000    0.41468985    0.42814952    0.03470000
opls_145-42    C    0.08591009    0.40005992    0.67678945    -0.07750000
opls_700-43    C    0.06929001    0.39267005    0.48446067    0.11220000
opls_145-44    C    0.11746014    0.37654000    0.74561991    -0.07590000
opls_700-45    C    0.13300001    0.34514994    0.62376034    -0.00390000
opls_145-46    C    0.11616008    0.33837985    0.42948990    -0.07580000
opls_145-47    C    0.08474994    0.36206985    0.35970981    -0.07360000
opls_141-48    C    0.16421998    0.32121995    0.69634992    0.53420000
opls_145-49    C    0.71866996    0.22172988    0.57925969    0.27020000
opls_145-50    C    0.73450994    0.23597003    0.39570018    -0.12890000
opls_145-51    C    0.76545008    0.26404995    0.76312059    -0.12880000
opls_700-52    C    0.46372000    0.04292986    0.39576985    0.02620000
opls_145-53    C    0.42811987    0.97884995    0.37983067    -0.07750000
opls_700-54    C    0.46418000    0.91468985    0.42814952    0.03470000
opls_145-55    C    0.41408991    0.90005992    0.67678945    -0.07750000
opls_700-56    C    0.43070999    0.89267005    0.48446067    0.11220000
opls_145-57    C    0.38253986    0.87654000    0.74561991    -0.07590000
opls_700-58    C    0.36699999    0.84514994    0.62376034    -0.00390000
opls_145-59    C    0.38383992    0.83837985    0.42948990    -0.07580000
opls_145-60    C    0.41525006    0.86206985    0.35970981    -0.07360000
opls_141-61    C    0.33578002    0.82121995    0.69634992    0.53420000
opls_145-62    C    0.78133004    0.72172988    0.57925969    0.27020000
opls_145-63    C    0.76549006    0.73597003    0.39570018    -0.12890000
opls_145-64    C    0.73454992    0.76404995    0.76312059    -0.12880000
opls_700-65    C    0.96372000    0.54292986    0.39576985    0.02620000
opls_145-66    C    0.92811987    0.47884995    0.37983067    -0.07750000
opls_700-67    C    0.96418000    0.41468985    0.42814952    0.03470000
opls_145-68    C    0.91408991    0.40005992    0.67678945    -0.07750000
opls_700-69    C    0.93070999    0.39267005    0.48446067    0.11230000
opls_145-70    C    0.88253986    0.37654000    0.74561991    -0.07590000
opls_700-71    C    0.86699999    0.34514994    0.62376034    -0.00390000
opls_145-72    C    0.88383992    0.33837985    0.42948990    -0.07580000
opls_145-73    C    0.91525006    0.36206985    0.35970981    -0.07360000
opls_141-74    C    0.83578002    0.32121995    0.69634992    0.53420000
opls_145-75    C    0.28133004    0.22172988    0.57925969    0.27030000
opls_145-76    C    0.26549006    0.23597003    0.39570018    -0.12880000
opls_145-77    C    0.23454992    0.26404995    0.76312059    -0.12880000
opls_700-78    C    0.53628000    0.95707014    0.39576985    0.02620000
opls_145-79    C    0.57188013    0.02115005    0.37983067    -0.07750000
opls_700-80    C    0.53582000    0.08531015    0.42814952    0.03470000
opls_145-81    C    0.58591009    0.09994008    0.67678945    -0.07750000
opls_700-82    C    0.56929001    0.10732995    0.48446067    0.11220000
opls_145-83    C    0.61746014    0.12346000    0.74561991    -0.07590000
opls_700-84    C    0.63300001    0.15485006    0.62376034    -0.00390000
opls_145-85    C    0.61616008    0.16162015    0.42948990    -0.07580000
opls_145-86    C    0.58474994    0.13793015    0.35970981    -0.07360000
opls_141-87    C    0.66421998    0.17878005    0.69634992    0.53420000
opls_145-88    C    0.21866996    0.27827012    0.57925969    0.27020000
opls_145-89    C    0.23450994    0.26402997    0.39570018    -0.12890000
opls_145-90    C    0.26545008    0.23595005    0.76312059    -0.12880000
opls_700-91    C    0.03628000    0.45707014    0.39576985    0.02620000
opls_145-92    C    0.07188013    0.52115005    0.37983067    -0.07750000
opls_700-93    C    0.03582000    0.58531015    0.42814952    0.03470000
opls_145-94    C    0.08591009    0.59994008    0.67678945    -0.07750000
opls_700-95    C    0.06929001    0.60732995    0.48446067    0.11230000
opls_145-96    C    0.11746014    0.62346000    0.74561991    -0.07590000
opls_700-97    C    0.13300001    0.65485006    0.62376034    -0.00390000
opls_145-98    C    0.11616008    0.66162015    0.42948990    -0.07580000
opls_145-99    C    0.08474994    0.63793015    0.35970981    -0.07360000
opls_141-100    C    0.16421998    0.67878005    0.69634992    0.53450000
opls_145-101    C    0.71866996    0.77827012    0.57925969    0.27020000
opls_145-102    C    0.73450994    0.76402997    0.39570018    -0.12890000
opls_145-103    C    0.76545008    0.73595005    0.76312059    -0.12880000
opls_145-104    C    0.50000000    0.10637001    0.43567988    -0.07810000
opls_700-105    C    0.50000000    0.97845987    0.38810014    0.00820000
opls_145-106    C    0.00000000    0.60637001    0.43567988    -0.07810000
opls_700-107    C    0.00000000    0.47845987    0.38810014    0.00820000
opls_145-108    C    0.50000000    0.89362999    0.43567988    -0.07800000
opls_700-109    C    0.50000000    0.02154013    0.38810014    0.00820000
opls_145-110    C    0.00000000    0.39362999    0.43567988    -0.07810000
opls_700-111    C    0.00000000    0.52154013    0.38810014    0.00820000
opls_750-112    N    0.31128992    0.19541005    0.55922061    -0.29410000
opls_750-113    N    0.81128992    0.69541005    0.55922061    -0.29410000
opls_750-114    N    0.68871008    0.80458995    0.55922061    -0.29400000
opls_750-115    N    0.18871008    0.30458995    0.55922061    -0.29410000
opls_750-116    N    0.31128992    0.80458995    0.55922061    -0.29410000
opls_750-117    N    0.81128992    0.30458995    0.55922061    -0.29410000
opls_750-118    N    0.68871008    0.19541005    0.55922061    -0.29410000
opls_750-119    N    0.18871008    0.69541005    0.55922061    -0.29400000
opls_146-120    H    0.39903003    0.03806996    0.36679944    0.05120000
opls_146-121    H    0.42634011    0.07476993    0.77661982    0.05120000
opls_146-122    H    0.36917008    0.11737991    0.90097992    0.05120000
opls_146-123    H    0.37181988    0.18661992    0.32789053    0.05120000
opls_146-124    H    0.42808988    0.14353996    0.20272014    0.05120000
opls_146-125    H    0.77781991    0.27527985    0.24535032    0.05120000
opls_146-126    H    0.72228003    0.22460999    0.91344016    0.05120000
opls_146-127    H    0.89903003    0.53806996    0.36679944    0.05120000
opls_146-128    H    0.92634011    0.57476993    0.77661982    0.05120000
opls_146-129    H    0.86917008    0.61737991    0.90097992    0.05120000
opls_146-130    H    0.87181988    0.68661992    0.32789053    0.05120000
opls_146-131    H    0.92808988    0.64353996    0.20272014    0.05120000
opls_146-132    H    0.27781991    0.77527985    0.24535032    0.05120000
opls_146-133    H    0.22228003    0.72460999    0.91344016    0.05120000
opls_146-134    H    0.60096997    0.96193004    0.36679944    0.05120000
opls_146-135    H    0.57365989    0.92523007    0.77661982    0.05120000
opls_146-136    H    0.63082992    0.88262009    0.90097992    0.05120000
opls_146-137    H    0.62818012    0.81338008    0.32789053    0.05120000
opls_146-138    H    0.57191012    0.85646004    0.20272014    0.05120000
opls_146-139    H    0.22218009    0.72472015    0.24535032    0.05120000
opls_146-140    H    0.27771997    0.77539001    0.91344016    0.05120000
opls_146-141    H    0.10096997    0.46193004    0.36679944    0.05120000
opls_146-142    H    0.07365989    0.42523007    0.77661982    0.05120000
opls_146-143    H    0.13082992    0.38262009    0.90097992    0.05120000
opls_146-144    H    0.12818012    0.31338008    0.32789053    0.05120000
opls_146-145    H    0.07191012    0.35646004    0.20272014    0.05120000
opls_146-146    H    0.72218009    0.22472015    0.24535032    0.05130000
opls_146-147    H    0.77771997    0.27539001    0.91344016    0.05120000
opls_146-148    H    0.39903003    0.96193004    0.36679944    0.05120000
opls_146-149    H    0.42634011    0.92523007    0.77661982    0.05120000
opls_146-150    H    0.36917008    0.88262009    0.90097992    0.05120000
opls_146-151    H    0.37181988    0.81338008    0.32789053    0.05120000
opls_146-152    H    0.42808988    0.85646004    0.20272014    0.05130000
opls_146-153    H    0.77781991    0.72472015    0.24535032    0.05120000
opls_146-154    H    0.72228003    0.77539001    0.91344016    0.05120000
opls_146-155    H    0.89903003    0.46193004    0.36679944    0.05120000
opls_146-156    H    0.92634011    0.42523007    0.77661982    0.05120000
opls_146-157    H    0.86917008    0.38262009    0.90097992    0.05120000
opls_146-158    H    0.87181988    0.31338008    0.32789053    0.05120000
opls_146-159    H    0.92808988    0.35646004    0.20272014    0.05120000
opls_146-160    H    0.27781991    0.22472015    0.24535032    0.05120000
opls_146-161    H    0.22228003    0.27539001    0.91344016    0.05120000
opls_146-162    H    0.60096997    0.03806996    0.36679944    0.05120000
opls_146-163    H    0.57365989    0.07476993    0.77661982    0.05120000
opls_146-164    H    0.63082992    0.11737991    0.90097992    0.05120000
opls_146-165    H    0.62818012    0.18661992    0.32789053    0.05120000
opls_146-166    H    0.57191012    0.14353996    0.20272014    0.05120000
opls_146-167    H    0.22218009    0.27527985    0.24535032    0.05120000
opls_146-168    H    0.27771997    0.22460999    0.91344016    0.05120000
opls_146-169    H    0.10096997    0.53806996    0.36679944    0.05130000
opls_146-170    H    0.07365989    0.57476993    0.77661982    0.05120000
opls_146-171    H    0.13082992    0.61737991    0.90097992    0.05120000
opls_146-172    H    0.12818012    0.68661992    0.32789053    0.05120000
opls_146-173    H    0.07191012    0.64353996    0.20272014    0.05120000
opls_146-174    H    0.72218009    0.77527985    0.24535032    0.05120000
opls_146-175    H    0.77771997    0.72460999    0.91344016    0.05120000
opls_146-176    H    0.50011992    0.14077999    0.44797958    0.05120000
opls_146-177    H    0.00011992    0.64077999    0.44797958    0.05120000
opls_146-178    H    0.49988008    0.85922001    0.44797958    0.05120000
opls_146-179    H    0.99988008    0.35922001    0.44797958    0.05120000
opls_272-180    O    0.33162000    0.18393985    0.88323994    -0.39070000
opls_272-181    O    0.83162000    0.68393985    0.88323994    -0.39070000
opls_272-182    O    0.66838000    0.81606015    0.88323994    -0.39080000
opls_272-183    O    0.16838000    0.31606015    0.88323994    -0.39070000
opls_272-184    O    0.33162000    0.81606015    0.88323994    -0.39080000
opls_272-185    O    0.83162000    0.31606015    0.88323994    -0.39070000
opls_272-186    O    0.66838000    0.18393985    0.88323994    -0.39080000
opls_272-187    O    0.16838000    0.68393985    0.88323994    -0.39080000
