#======================================================================
# Crystal Data Generated By AuToFF
#----------------------------------------------------------------------

data_AuToFF_phase_1

_cell_length_a                         27.3729
_cell_length_b                         27.3729
_cell_length_c                         5.6941
_cell_angle_alpha                      90.00
_cell_angle_beta                       90.00
_cell_angle_gamma                      120.00
_symmetry_space_group_name_H-M_alt     'P 1'
_symmetry_space_group_IT_number        1

loop_
_space_group_symop_operation_xyz
   'x, y, z'

loop_
   _atom_site_label
   _atom_site_type_symbol
   _atom_site_fract_x
   _atom_site_fract_y
   _atom_site_fract_z
   _atom_site_charge
opls_750-0    N    0.52611998    0.50624008    0.27343917    -0.14210000
opls_750-1    N    0.49376017    0.01988009    0.27343917    -0.14210000
opls_750-2    N    0.98011985    0.47387983    0.27343917    -0.14210000
opls_750-3    N    0.47388002    0.49375992    0.27343917    -0.14210000
opls_750-4    N    0.50623983    0.98011991    0.27343917    -0.14200000
opls_750-5    N    0.01987994    0.52611974    0.27343917    -0.14210000
opls_142-6    C    0.54193992    0.46684986    0.27314940    0.02600000
opls_142-7    C    0.53315023    0.07509018    0.27314940    0.02600000
opls_142-8    C    0.92490985    0.45805996    0.27314940    0.02600000
opls_142-9    C    0.45805987    0.53314972    0.27314940    0.02600000
opls_142-10    C    0.46684977    0.92490982    0.27314940    0.02600000
opls_142-11    C    0.07509015    0.54194004    0.27314940    0.02600000
opls_700-12    C    0.47046972    0.15753979    0.98988953    -0.04780000
opls_700-13    C    0.84245985    0.31292988    0.98988953    -0.04780000
opls_700-14    C    0.68706986    0.52952990    0.98988953    -0.04780000
opls_700-15    C    0.52953007    0.84245979    0.98988953    -0.04780000
opls_700-16    C    0.15753994    0.68706970    0.98988953    -0.04780000
opls_700-17    C    0.31293014    0.47047010    0.98988953    -0.04780000
opls_145-18    C    0.52040998    0.21118992    0.99929049    -0.08870000
opls_145-19    C    0.78880978    0.30921979    0.99929049    -0.08850000
opls_145-20    C    0.69078003    0.47958987    0.99929049    -0.08850000
opls_145-21    C    0.47959002    0.78881008    0.99929049    -0.08870000
opls_145-22    C    0.21119001    0.69077979    0.99929049    -0.08850000
opls_145-23    C    0.30921997    0.52041013    0.99929049    -0.08850000
opls_700-24    C    0.59580991    0.47632988    0.20426933    -0.00650000
opls_700-25    C    0.52367005    0.11948006    0.20426933    -0.00650000
opls_700-26    C    0.88052004    0.40419006    0.20426933    -0.00650000
opls_700-27    C    0.40419009    0.52367012    0.20426933    -0.00650000
opls_700-28    C    0.47632995    0.88051994    0.20426933    -0.00650000
opls_700-29    C    0.11947996    0.59580994    0.20426933    -0.00650000
opls_145-30    C    0.60580987    0.43059982    0.22803077    -0.09730000
opls_145-31    C    0.56940006    0.17520986    0.22803077    -0.09730000
opls_145-32    C    0.82478986    0.39418990    0.22803077    -0.09720000
opls_145-33    C    0.39418992    0.56939976    0.22803077    -0.09730000
opls_145-34    C    0.43059973    0.82478972    0.22803077    -0.09730000
opls_145-35    C    0.17521014    0.60581010    0.22803077    -0.09730000
opls_700-36    C    0.65949004    0.38198985    0.13264080    0.06710000
opls_700-37    C    0.61801010    0.27749990    0.13264080    0.06300000
opls_700-38    C    0.72250002    0.34050983    0.13264080    0.06310000
opls_700-39    C    0.34051998    0.61800973    0.13264080    0.06710000
opls_700-40    C    0.38198990    0.72250010    0.13264080    0.06710000
opls_700-41    C    0.27749977    0.65948975    0.13264080    0.06300000
opls_166-42    C    0.63865992    0.52686008    0.09805061    0.17520000
opls_166-43    C    0.47314006    0.11180002    0.09805061    0.17520000
opls_166-44    C    0.88820003    0.36133990    0.09805061    0.17520000
opls_166-45    C    0.36134008    0.47313992    0.09805061    0.17520000
opls_166-46    C    0.52685994    0.88819998    0.09805061    0.17530000
opls_166-47    C    0.11179997    0.63866010    0.09805061    0.17520000
opls_700-48    C    0.65235985    0.43021974    0.12263922    0.06710000
opls_700-49    C    0.56977992    0.22214006    0.12263922    0.06710000
opls_700-50    C    0.77786002    0.34763978    0.12263922    0.06710000
opls_700-51    C    0.34763994    0.56977984    0.12263922    0.07050000
opls_700-52    C    0.43022008    0.77785994    0.12263922    0.06710000
opls_700-53    C    0.22213977    0.65235980    0.12263922    0.06710000
opls_145-54    C    0.71371989    0.38731981    0.13456033    -0.08850000
opls_145-55    C    0.61268006    0.32638998    0.13456033    -0.08850000
opls_145-56    C    0.67360996    0.28628009    0.13456033    -0.08850000
opls_145-57    C    0.28627990    0.61267977    0.13456033    -0.10680000
opls_145-58    C    0.38733017    0.67361002    0.13456033    -0.08850000
opls_145-59    C    0.32639004    0.71371991    0.13456033    -0.08850000
opls_135-60    C    0.76226990    0.63251008    0.04585975    -0.51240000
opls_516-61    C    0.58310986    0.85057980    0.86728017    0.21730000
opls_135-62    C    0.78158973    0.57843981    0.74767918    -0.52350000
opls_135-63    C    0.29327985    0.39836992    0.66615971    -0.51910000
opls_135-64    C    0.36748983    0.12975989    0.04585975    -0.51420000
opls_516-65    C    0.14942999    0.73252978    0.86728017    0.21730000
opls_135-66    C    0.42156993    0.20316018    0.74767918    -0.52350000
opls_135-67    C    0.60163000    0.89490977    0.66615971    -0.51490000
opls_135-68    C    0.87023991    0.23773002    0.04585975    -0.51240000
opls_516-69    C    0.26747017    0.41689000    0.86728017    0.21730000
opls_135-70    C    0.79683992    0.21841014    0.74767918    -0.52300000
opls_135-71    C    0.10508994    0.70671988    0.66615971    -0.51490000
opls_135-72    C    0.23773010    0.36748992    0.04585975    -0.51240000
opls_516-73    C    0.41688993    0.14941978    0.86728017    0.21730000
opls_135-74    C    0.21841001    0.42156990    0.74767918    -0.52350000
opls_135-75    C    0.70672015    0.60163008    0.66615971    -0.51480000
opls_135-76    C    0.63251983    0.87023969    0.04585975    -0.51420000
opls_516-77    C    0.85058003    0.26746980    0.86728017    0.21730000
opls_135-78    C    0.57843993    0.79683982    0.74767918    -0.52340000
opls_135-79    C    0.39836979    0.10508980    0.66615971    -0.51480000
opls_135-80    C    0.12976009    0.76226998    0.04585975    -0.51310000
opls_516-81    C    0.73252983    0.58311000    0.86728017    0.21730000
opls_135-82    C    0.20316008    0.78158986    0.74767918    -0.52350000
opls_135-83    C    0.89491006    0.29328012    0.66615971    -0.51490000
opls_144-84    H    0.51099014    0.42639997    0.31070933    0.10050000
opls_144-85    H    0.57360007    0.08459003    0.31070933    0.10050000
opls_144-86    H    0.91541016    0.48900999    0.31070933    0.10050000
opls_144-87    H    0.48900986    0.57360003    0.31070933    0.10050000
opls_144-88    H    0.42639993    0.91540997    0.31070933    0.10060000
opls_144-89    H    0.08458984    0.51099001    0.31070933    0.10050000
opls_146-90    H    0.52137006    0.24392012    0.91135035    0.20720000
opls_146-91    H    0.75607987    0.27744000    0.91135035    0.20730000
opls_146-92    H    0.72255999    0.47862976    0.91135035    0.20730000
opls_146-93    H    0.47862994    0.75607988    0.91135035    0.20720000
opls_146-94    H    0.24392013    0.72256000    0.91135035    0.20720000
opls_146-95    H    0.27743980    0.52136982    0.91135035    0.20730000
opls_146-96    H    0.57771012    0.39614007    0.32290968    0.20700000
opls_146-97    H    0.60385995    0.18156995    0.32290968    0.20700000
opls_146-98    H    0.81842993    0.42228998    0.32290968    0.20700000
opls_146-99    H    0.42228988    0.60385993    0.32290968    0.20700000
opls_146-100    H    0.39614005    0.81843005    0.32290968    0.20710000
opls_146-101    H    0.18157007    0.57771002    0.32290968    0.20700000
opls_146-102    H    0.57312989    0.32124014    0.13495021    0.20710000
opls_146-103    H    0.67875999    0.25188995    0.13495021    0.20710000
opls_146-104    H    0.74811012    0.42686990    0.13495021    0.20710000
opls_146-105    H    0.42687011    0.67875986    0.13495021    0.20710000
opls_146-106    H    0.32124001    0.74811005    0.13495021    0.20720000
opls_146-107    H    0.25188988    0.57313010    0.13495021    0.20710000
opls_168-108    H    0.59927985    0.57102005    0.16650919    0.29330000
opls_168-109    H    0.42898007    0.02825995    0.16650919    0.29330000
opls_168-110    H    0.97174009    0.40072000    0.16650919    0.29330000
opls_168-111    H    0.40072015    0.42897995    0.16650919    0.29330000
opls_168-112    H    0.57101993    0.97174005    0.16650919    0.29330000
opls_168-113    H    0.02825991    0.59928000    0.16650919    0.29330000
opls_140-114    H    0.76529990    0.54609981    0.61094993    0.10690000
opls_140-115    H    0.80441013    0.56783009    0.87637028    0.10960000
opls_140-116    H    0.81239983    0.61800973    0.66471962    0.10870000
opls_140-117    H    0.78082989    0.62065973    0.18877083    0.10620000
opls_140-118    H    0.73248981    0.64351970    0.12162941    0.09630000
opls_140-119    H    0.79565989    0.67063984    0.96321982    0.10640000
opls_140-120    H    0.68602005    0.56783009    0.53806923    0.09980000
opls_140-121    H    0.73869993    0.63928991    0.57621046    0.10290000
opls_140-122    H    0.67522006    0.61148006    0.73086001    0.09980000
opls_140-123    H    0.45389988    0.21920995    0.61094993    0.10710000
opls_140-124    H    0.43217019    0.23658009    0.87637028    0.10750000
opls_140-125    H    0.38199024    0.19439011    0.66471962    0.12030000
opls_140-126    H    0.37934995    0.16016997    0.18877083    0.10620000
opls_140-127    H    0.35648008    0.08897000    0.12162941    0.09630000
opls_140-128    H    0.32936016    0.12500997    0.96321982    0.10210000
opls_140-129    H    0.43216986    0.11819007    0.53806923    0.09980000
opls_140-130    H    0.36071012    0.09941014    0.57621046    0.10290000
opls_140-131    H    0.38851989    0.06374013    0.73086001    0.09980000
opls_140-132    H    0.78079009    0.23469994    0.61094993    0.10770000
opls_140-133    H    0.76342004    0.19558982    0.87637028    0.10750000
opls_140-134    H    0.80560994    0.18760016    0.66471962    0.12030000
opls_140-135    H    0.83982982    0.21916988    0.18877083    0.10630000
opls_140-136    H    0.91102990    0.26750987    0.12162941    0.09630000
opls_140-137    H    0.87498987    0.20434007    0.96321982    0.11860000
opls_140-138    H    0.88181009    0.31397984    0.53806923    0.09990000
opls_140-139    H    0.90058995    0.26129995    0.57621046    0.10290000
opls_140-140    H    0.93626005    0.32477981    0.73086001    0.09980000
opls_140-141    H    0.23469989    0.45389977    0.61094993    0.10710000
opls_140-142    H    0.19558987    0.43216991    0.87637028    0.10750000
opls_140-143    H    0.18759996    0.38198985    0.66471962    0.12030000
opls_140-144    H    0.21916985    0.37934997    0.18877083    0.10230000
opls_140-145    H    0.26750998    0.35647987    0.12162941    0.09630000
opls_140-146    H    0.20434011    0.32936016    0.96321982    0.10640000
opls_140-147    H    0.31398982    0.43216991    0.53806923    0.09990000
opls_140-148    H    0.26130007    0.36071009    0.57621046    0.10290000
opls_140-149    H    0.32478980    0.38851994    0.73086001    0.09980000
opls_140-150    H    0.54610012    0.78079005    0.61094993    0.10750000
opls_140-151    H    0.56782981    0.76341991    0.87637028    0.11860000
opls_140-152    H    0.61800976    0.80560989    0.66471962    0.10680000
opls_140-153    H    0.62065991    0.83983003    0.18877083    0.10620000
opls_140-154    H    0.64351992    0.91103000    0.12162941    0.09630000
opls_140-155    H    0.67063984    0.87499003    0.96321982    0.11190000
opls_140-156    H    0.56783014    0.88180993    0.53806923    0.09980000
opls_140-157    H    0.63928988    0.90058986    0.57621046    0.10290000
opls_140-158    H    0.61148011    0.93625987    0.73086001    0.09990000
opls_140-159    H    0.21920991    0.76530006    0.61094993    0.10750000
opls_140-160    H    0.23657975    0.80440975    0.87637028    0.10750000
opls_140-161    H    0.19438975    0.81238972    0.66471962    0.10680000
opls_140-162    H    0.16016997    0.78082970    0.18877083    0.10620000
opls_140-163    H    0.08896989    0.73248971    0.12162941    0.09630000
opls_140-164    H    0.12501013    0.79565993    0.96321982    0.11870000
opls_140-165    H    0.11818970    0.68601973    0.53806923    0.09980000
opls_140-166    H    0.09941005    0.73870005    0.57621046    0.10290000
opls_140-167    H    0.06373974    0.67521977    0.73086001    0.09980000
opls_167-168    O    0.63333989    0.57361985    0.09985950    -0.48660000
opls_167-169    O    0.42637991    0.05971999    0.09985950    -0.48650000
opls_167-170    O    0.94028020    0.36666016    0.09985950    -0.48660000
opls_167-171    O    0.36666011    0.42638015    0.09985950    -0.48650000
opls_167-172    O    0.57362009    0.94028001    0.09985950    -0.48650000
opls_167-173    O    0.05971980    0.63333984    0.09985950    -0.48660000
