#======================================================================
# Crystal Data Generated By AuToFF
#----------------------------------------------------------------------

data_AuToFF_phase_1

_cell_length_a                         15.9491
_cell_length_b                         15.9491
_cell_length_c                         7.2979
_cell_angle_alpha                      90.00
_cell_angle_beta                       90.00
_cell_angle_gamma                      120.00
_symmetry_space_group_name_H-M_alt     'P 1'
_symmetry_space_group_IT_number        1

loop_
_space_group_symop_operation_xyz
   'x, y, z'

loop_
   _atom_site_label
   _atom_site_type_symbol
   _atom_site_fract_x
   _atom_site_fract_y
   _atom_site_fract_z
   _atom_site_charge
opls_916-0    C    0.45433997    0.97387986    0.21416983    0.14810000
opls_145-1    C    0.48673005    0.93172984    0.29872018    -0.23660000
opls_145-2    C    0.44947959    0.83468973    0.29979035    0.06620000
opls_145-3    C    0.37688943    0.77754948    0.21346004    -0.16150000
opls_145-4    C    0.34348018    0.82115979    0.12839036    0.06610000
opls_145-5    C    0.38242980    0.91842940    0.13099933    -0.23900000
opls_142-6    C    0.54882026    0.41148018    0.24277943    0.09780000
opls_145-7    C    0.60632021    0.37634997    0.26116006    -0.11560000
opls_280-8    C    0.56481004    0.27406962    0.27421998    0.23490000
opls_148-9    C    0.48828974    0.79515983    0.39513970    -0.41170000
opls_148-10    C    0.26733984    0.76690971    0.03310952    -0.41190000
opls_145-11    C    0.78809974    0.64036987    0.74569945    0.14830000
opls_145-12    C    0.82049989    0.59925950    0.83202976    -0.23660000
opls_145-13    C    0.78343028    0.50227007    0.83510051    0.06600000
opls_145-14    C    0.71001975    0.44404963    0.75074062    -0.16140000
opls_145-15    C    0.67615029    0.48648997    0.66455008    0.06640000
opls_145-16    C    0.71602980    0.58383995    0.66340043    -0.23900000
opls_142-17    C    0.88179973    0.07767987    0.77243043    0.09780000
opls_145-18    C    0.93942028    0.04288994    0.79274038    -0.11560000
opls_280-19    C    0.89792003    0.94043004    0.80449033    0.23520000
opls_135-20    C    0.82312004    0.46382978    0.93054988    -0.41170000
opls_135-21    C    0.59852016    0.43113001    0.57190014    -0.41190000
opls_916-22    C    0.02612004    0.48045985    0.21416983    0.14810000
opls_145-23    C    0.06826990    0.55499977    0.29872018    -0.23660000
opls_145-24    C    0.16530978    0.61478983    0.29979035    0.06620000
opls_145-25    C    0.22244990    0.59933987    0.21346004    -0.16150000
opls_145-26    C    0.17883977    0.52231955    0.12839036    0.06610000
opls_145-27    C    0.08157015    0.46399992    0.13099933    -0.23900000
opls_142-28    C    0.58851983    0.13733961    0.24277943    0.09780000
opls_145-29    C    0.62365001    0.22996989    0.26116006    -0.11560000
opls_280-30    C    0.72593015    0.29074023    0.27421998    0.23490000
opls_148-31    C    0.20483975    0.69312998    0.39513970    -0.41170000
opls_148-32    C    0.23308974    0.50042969    0.03310952    -0.41190000
opls_145-33    C    0.35962951    0.14772960    0.74569945    0.14830000
opls_145-34    C    0.40073982    0.22124001    0.83202976    -0.23660000
opls_145-35    C    0.49772976    0.28115966    0.83510051    0.06600000
opls_145-36    C    0.55594974    0.26596961    0.75074062    -0.16140000
opls_145-37    C    0.51351018    0.18966025    0.66455008    0.06640000
opls_145-38    C    0.41615983    0.13218986    0.66340043    -0.23900000
opls_142-39    C    0.92232005    0.80411994    0.77243043    0.09780000
opls_145-40    C    0.95710972    0.89652941    0.79274038    -0.11560000
opls_280-41    C    0.05956997    0.95748943    0.80449033    0.23520000
opls_135-42    C    0.53616975    0.35928985    0.93054988    -0.41170000
opls_135-43    C    0.56886986    0.16739030    0.57190014    -0.41190000
opls_916-44    C    0.51953963    0.54565957    0.21416983    0.14810000
opls_145-45    C    0.44499969    0.51326967    0.29872018    -0.23660000
opls_145-46    C    0.38520964    0.55051972    0.29979035    0.06620000
opls_145-47    C    0.40065968    0.62310993    0.21346004    -0.16150000
opls_145-48    C    0.47767968    0.65651994    0.12839036    0.06610000
opls_145-49    C    0.53599968    0.61756995    0.13099933    -0.23900000
opls_142-50    C    0.86265991    0.45118021    0.24277943    0.09780000
opls_145-51    C    0.77002978    0.39368014    0.26116006    -0.11560000
opls_280-52    C    0.70925981    0.43519015    0.27421998    0.23490000
opls_148-53    C    0.30686989    0.51171019    0.39513970    -0.41160000
opls_148-54    C    0.49957006    0.73265988    0.03310952    -0.41190000
opls_145-55    C    0.85226976    0.21189980    0.74569945    0.14830000
opls_145-56    C    0.77875992    0.17949977    0.83202976    -0.23660000
opls_145-57    C    0.71883996    0.21657027    0.83510051    0.06600000
opls_145-58    C    0.73403015    0.28998004    0.75074062    -0.16130000
opls_145-59    C    0.81034016    0.32384978    0.66455008    0.06640000
opls_145-60    C    0.86781038    0.28397019    0.66340043    -0.23890000
opls_142-61    C    0.19588023    0.11820019    0.77243043    0.09780000
opls_145-62    C    0.10347027    0.06057993    0.79274038    -0.11560000
opls_280-63    C    0.04250964    0.10207981    0.80449033    0.23520000
opls_135-64    C    0.64070986    0.17687964    0.93054988    -0.41170000
opls_135-65    C    0.83260998    0.40147969    0.57190014    -0.41190000
opls_238-66    N    0.58110991    0.50800987    0.21430960    -0.27510000
opls_238-67    N    0.91364964    0.17400974    0.74300963    -0.27550000
opls_238-68    N    0.49199007    0.07309990    0.21430960    -0.27510000
opls_238-69    N    0.82598988    0.73963987    0.74300963    -0.27550000
opls_238-70    N    0.92690002    0.41889022    0.21430960    -0.27500000
opls_238-71    N    0.26036013    0.08634966    0.74300963    -0.27540000
opls_281-72    O    0.48240983    0.22706017    0.30224037    -0.40470000
opls_281-73    O    0.81449978    0.89271977    0.82676934    -0.40950000
opls_281-74    O    0.77294031    0.25535011    0.30224037    -0.40480000
opls_281-75    O    0.10728009    0.92178003    0.82676934    -0.40940000
opls_281-76    O    0.74464986    0.51758972    0.30224037    -0.40480000
opls_281-77    O    0.07822013    0.18550020    0.82676934    -0.40950000
opls_146-78    H    0.54055011    0.97496005    0.36549007    0.20730000
opls_146-79    H    0.35721008    0.95195959    0.06713027    0.20740000
opls_910-80    H    0.64928996    0.55085999    0.18122063    0.24790000
opls_144-81    H    0.47383965    0.36317985    0.24243001    0.10120000
opls_140-82    H    0.53018968    0.76929960    0.34602968    0.13640000
opls_140-83    H    0.43075972    0.73670988    0.44727935    0.13710000
opls_140-84    H    0.53445001    0.84801985    0.46529961    0.13730000
opls_140-85    H    0.28315998    0.71919003    0.97904055    0.13720000
opls_140-86    H    0.25897962    0.81314956    0.96472958    0.13730000
opls_140-87    H    0.19960977    0.72546992    0.08241001    0.13670000
opls_146-88    H    0.87431999    0.64329986    0.89841050    0.20730000
opls_146-89    H    0.69143014    0.61648976    0.59705943    0.20730000
opls_910-90    H    0.98091011    0.21595994    0.70664986    0.24790000
opls_144-91    H    0.80691994    0.02927022    0.77115060    0.10120000
opls_140-92    H    0.86343014    0.43596989    0.88203045    0.13710000
opls_140-93    H    0.76610000    0.40718981    0.98579043    0.13710000
opls_140-94    H    0.87138974    0.51805959    0.99765001    0.13730000
opls_140-95    H    0.60880961    0.37684953    0.52604996    0.13700000
opls_140-96    H    0.59630985    0.47591970    0.49530002    0.13730000
opls_140-97    H    0.53028004    0.39715964    0.62128009    0.13730000
opls_146-98    H    0.02503981    0.56558959    0.36549007    0.20730000
opls_146-99    H    0.04804022    0.40525024    0.06713027    0.20730000
opls_910-100    H    0.44913985    0.09843017    0.18122063    0.24790000
opls_144-101    H    0.63681978    0.11065982    0.24243001    0.10120000
opls_140-102    H    0.23069974    0.76088973    0.34602968    0.13640000
opls_140-103    H    0.26328959    0.69404945    0.44727935    0.13710000
opls_140-104    H    0.15197948    0.68642944    0.46529961    0.13740000
opls_140-105    H    0.28081002    0.56397002    0.97904055    0.13720000
opls_140-106    H    0.18685023    0.44582992    0.96472958    0.13730000
opls_140-107    H    0.27452986    0.47414013    0.08241001    0.13670000
opls_146-108    H    0.35669962    0.23101968    0.89841050    0.20730000
opls_146-109    H    0.38351036    0.07494029    0.59705943    0.20730000
opls_910-110    H    0.78403991    0.76494987    0.70664986    0.24780000
opls_144-111    H    0.97072999    0.77765011    0.77115060    0.10120000
opls_140-112    H    0.56403007    0.42746010    0.88203045    0.13710000
opls_140-113    H    0.59280986    0.35890976    0.98579043    0.13710000
opls_140-114    H    0.48193989    0.35332996    0.99765001    0.13730000
opls_140-115    H    0.62315038    0.23196014    0.52604996    0.13700000
opls_140-116    H    0.52408024    0.12039026    0.49530002    0.13730000
opls_140-117    H    0.60283989    0.13312019    0.62128009    0.13730000
opls_146-118    H    0.43440972    0.45944964    0.36549007    0.20730000
opls_146-119    H    0.59474996    0.64278945    0.06713027    0.20730000
opls_910-120    H    0.90157019    0.35070984    0.18122063    0.24800000
opls_144-121    H    0.88933959    0.52615960    0.24243001    0.10120000
opls_140-122    H    0.23911023    0.46980995    0.34602968    0.13640000
opls_140-123    H    0.30594970    0.56923995    0.44727935    0.13710000
opls_140-124    H    0.31357015    0.46554998    0.46529961    0.13730000
opls_140-125    H    0.43603000    0.71683995    0.97904055    0.13720000
opls_140-126    H    0.55416979    0.74101980    0.96472958    0.13730000
opls_140-127    H    0.52585974    0.80038994    0.08241001    0.13670000
opls_146-128    H    0.76898003    0.12567974    0.89841050    0.20730000
opls_146-129    H    0.92506013    0.30856995    0.59705943    0.20730000
opls_910-130    H    0.23504998    0.01909019    0.70664986    0.24780000
opls_144-131    H    0.22235006    0.19307966    0.77115060    0.10120000
opls_140-132    H    0.57253979    0.13657001    0.88203045    0.13710000
opls_140-133    H    0.64108978    0.23389971    0.98579043    0.13720000
opls_140-134    H    0.64667001    0.12860973    0.99765001    0.13730000
opls_140-135    H    0.76803965    0.39118961    0.52604996    0.13700000
opls_140-136    H    0.87960991    0.40369004    0.49530002    0.13730000
opls_140-137    H    0.86688007    0.46972017    0.62128009    0.13730000
MOF2_B_2-138    B    0.33332977    0.66666956    0.21271051    0.17650000
MOF2_B_2-139    B    0.66666987    0.33332971    0.75273983    0.17690000
