#======================================================================
# Crystal Data Generated By AuToFF
#----------------------------------------------------------------------

data_AuToFF_phase_1

_cell_length_a                         15.7703
_cell_length_b                         15.7703
_cell_length_c                         7.0717
_cell_angle_alpha                      90.00
_cell_angle_beta                       90.00
_cell_angle_gamma                      90.00
_symmetry_space_group_name_H-M_alt     'P 1'
_symmetry_space_group_IT_number        1

loop_
_space_group_symop_operation_xyz
   'x, y, z'

loop_
   _atom_site_label
   _atom_site_type_symbol
   _atom_site_fract_x
   _atom_site_fract_y
   _atom_site_fract_z
   _atom_site_charge
opls_140-0    H    0.78479991    0.78700025    0.08140051    0.17130000
opls_140-1    H    0.89840016    0.79019993    0.82959967    0.17130000
opls_140-2    H    0.90019974    0.71839978    0.66919977    0.17130000
opls_146-3    H    0.98009993    0.68500029    0.93300055    0.21350000
opls_146-4    H    0.05889996    0.60659975    0.14839996    0.21340000
opls_146-5    H    0.84250014    0.50429985    0.35899996    0.21340000
opls_146-6    H    0.76549971    0.57699980    0.12999986    0.21340000
opls_140-7    H    0.71520009    0.71299975    0.08140051    0.17130000
opls_140-8    H    0.60159984    0.70980007    0.82959967    0.17130000
opls_140-9    H    0.59980026    0.78160022    0.66919977    0.17130000
opls_146-10    H    0.51990007    0.81499971    0.93300055    0.21350000
opls_146-11    H    0.44110004    0.89340025    0.14839996    0.21340000
opls_146-12    H    0.65749986    0.99570015    0.35899996    0.21340000
opls_146-13    H    0.73450029    0.92300020    0.12999986    0.21350000
opls_140-14    H    0.21299975    0.28479991    0.58140051    0.17130000
opls_140-15    H    0.20980007    0.39840016    0.32959967    0.17130000
opls_140-16    H    0.28160022    0.40019974    0.16919977    0.17130000
opls_146-17    H    0.31499971    0.48009993    0.43300055    0.21350000
opls_146-18    H    0.39340025    0.55889996    0.64839996    0.21340000
opls_146-19    H    0.49570015    0.34250014    0.85899996    0.21340000
opls_146-20    H    0.42300020    0.26549971    0.62999986    0.21340000
opls_140-21    H    0.28700025    0.21520009    0.58140051    0.17140000
opls_140-22    H    0.29019993    0.10159984    0.32959967    0.17130000
opls_140-23    H    0.21839978    0.09980026    0.16919977    0.17130000
opls_146-24    H    0.18500029    0.01990007    0.43300055    0.21340000
opls_146-25    H    0.10659975    0.94110004    0.64839996    0.21340000
opls_146-26    H    0.00429985    0.15749986    0.85899996    0.21340000
opls_146-27    H    0.07699980    0.23450029    0.62999986    0.21340000
opls_140-28    H    0.21520009    0.21299975    0.91859949    0.17130000
opls_140-29    H    0.10159984    0.20980007    0.17040033    0.17130000
opls_140-30    H    0.09980026    0.28160022    0.33080023    0.17130000
opls_146-31    H    0.01990007    0.31499971    0.06699945    0.21340000
opls_146-32    H    0.94110004    0.39340025    0.85160004    0.21340000
opls_146-33    H    0.15749986    0.49570015    0.64100004    0.21340000
opls_146-34    H    0.23450029    0.42300020    0.87000014    0.21340000
opls_140-35    H    0.28479991    0.28700025    0.91859949    0.17130000
opls_140-36    H    0.39840016    0.29019993    0.17040033    0.17130000
opls_140-37    H    0.40019974    0.21839978    0.33080023    0.17130000
opls_146-38    H    0.48009993    0.18500029    0.06699945    0.21340000
opls_146-39    H    0.55889996    0.10659975    0.85160004    0.21340000
opls_146-40    H    0.34250014    0.00429985    0.64100004    0.21340000
opls_146-41    H    0.26549971    0.07699980    0.87000014    0.21340000
opls_140-42    H    0.78700025    0.71520009    0.41859949    0.17130000
opls_140-43    H    0.79019993    0.60159984    0.67040033    0.17130000
opls_140-44    H    0.71839978    0.59980026    0.83080023    0.17130000
opls_146-45    H    0.68500029    0.51990007    0.56699945    0.21340000
opls_146-46    H    0.60659975    0.44110004    0.35160004    0.21340000
opls_146-47    H    0.50429985    0.65749986    0.14100004    0.21340000
opls_146-48    H    0.57699980    0.73450029    0.37000014    0.21340000
opls_140-49    H    0.71299975    0.78479991    0.41859949    0.17130000
opls_140-50    H    0.70980007    0.89840016    0.67040033    0.17130000
opls_140-51    H    0.78160022    0.90019974    0.83080023    0.17130000
opls_146-52    H    0.81499971    0.98009993    0.56699945    0.21340000
opls_146-53    H    0.89340025    0.05889996    0.35160004    0.21340000
opls_146-54    H    0.99570015    0.84250014    0.14100004    0.21340000
opls_146-55    H    0.92300020    0.76549971    0.37000014    0.21340000
opls_516-56    C    0.80869990    0.69471982    0.87689947    0.12490000
opls_136-57    C    0.86245030    0.75326975    0.74960052    -0.32320000
opls_700-58    C    0.86362973    0.64120023    0.00960024    0.03260000
opls_145-59    C    0.95172001    0.64813986    0.01840010    -0.22290000
opls_145-60    C    0.99880028    0.60260997    0.14869975    -0.22480000
opls_916-61    C    0.95822020    0.55107005    0.28000057    0.08680000
opls_145-62    C    0.87062009    0.54086986    0.27269963    -0.22370000
opls_145-63    C    0.82514981    0.58510999    0.13690060    -0.22280000
opls_516-64    C    0.69130010    0.80528018    0.87689947    0.12490000
opls_136-65    C    0.63754970    0.74673025    0.74960052    -0.32320000
opls_700-66    C    0.63637027    0.85879977    0.00960024    0.03260000
opls_145-67    C    0.54827999    0.85186014    0.01840010    -0.22290000
opls_145-68    C    0.50119972    0.89739003    0.14869975    -0.22480000
opls_916-69    C    0.54177980    0.94892995    0.28000057    0.08680000
opls_145-70    C    0.62937991    0.95913014    0.27269963    -0.22360000
opls_145-71    C    0.67485019    0.91489001    0.13690060    -0.22290000
opls_516-72    C    0.30528018    0.30869990    0.37689947    0.12490000
opls_136-73    C    0.24673025    0.36245030    0.24960052    -0.32330000
opls_700-74    C    0.35879977    0.36362973    0.50960024    0.03260000
opls_145-75    C    0.35186014    0.45172001    0.51840010    -0.22290000
opls_145-76    C    0.39739003    0.49880028    0.64869975    -0.22480000
opls_916-77    C    0.44892995    0.45822020    0.78000057    0.08680000
opls_145-78    C    0.45913014    0.37062009    0.77269963    -0.22370000
opls_145-79    C    0.41489001    0.32514981    0.63690060    -0.22290000
opls_516-80    C    0.19471982    0.19130010    0.37689947    0.12500000
opls_136-81    C    0.25326975    0.13754970    0.24960052    -0.32330000
opls_700-82    C    0.14120023    0.13637027    0.50960024    0.03260000
opls_145-83    C    0.14813986    0.04827999    0.51840010    -0.22270000
opls_145-84    C    0.10260997    0.00119972    0.64869975    -0.22480000
opls_916-85    C    0.05107005    0.04177980    0.78000057    0.08680000
opls_145-86    C    0.04086986    0.12937991    0.77269963    -0.22360000
opls_145-87    C    0.08510999    0.17485019    0.63690060    -0.22290000
opls_516-88    C    0.19130010    0.30528018    0.12310053    0.12490000
opls_136-89    C    0.13754970    0.24673025    0.25039948    -0.32330000
opls_700-90    C    0.13637027    0.35879977    0.99039976    0.03260000
opls_145-91    C    0.04827999    0.35186014    0.98159990    -0.22290000
opls_145-92    C    0.00119972    0.39739003    0.85130025    -0.22470000
opls_916-93    C    0.04177980    0.44892995    0.71999943    0.08680000
opls_145-94    C    0.12937991    0.45913014    0.72730037    -0.22370000
opls_145-95    C    0.17485019    0.41489001    0.86309940    -0.22290000
opls_516-96    C    0.30869990    0.19471982    0.12310053    0.12490000
opls_136-97    C    0.36245030    0.25326975    0.25039948    -0.32320000
opls_700-98    C    0.36362973    0.14120023    0.99039976    0.03260000
opls_145-99    C    0.45172001    0.14813986    0.98159990    -0.22280000
opls_145-100    C    0.49880028    0.10260997    0.85130025    -0.22480000
opls_916-101    C    0.45822020    0.05107005    0.71999943    0.08680000
opls_145-102    C    0.37062009    0.04086986    0.72730037    -0.22370000
opls_145-103    C    0.32514981    0.08510999    0.86309940    -0.22290000
opls_516-104    C    0.69471982    0.69130010    0.62310053    0.12490000
opls_136-105    C    0.75326975    0.63754970    0.75039948    -0.32330000
opls_700-106    C    0.64120023    0.63637027    0.49039976    0.03260000
opls_145-107    C    0.64813986    0.54827999    0.48159990    -0.22290000
opls_145-108    C    0.60260997    0.50119972    0.35130025    -0.22480000
opls_916-109    C    0.55107005    0.54177980    0.21999943    0.08680000
opls_145-110    C    0.54086986    0.62937991    0.22730037    -0.22360000
opls_145-111    C    0.58510999    0.67485019    0.36309940    -0.22290000
opls_516-112    C    0.80528018    0.80869990    0.62310053    0.12490000
opls_136-113    C    0.74673025    0.86245030    0.75039948    -0.32330000
opls_700-114    C    0.85879977    0.86362973    0.49039976    0.03260000
opls_145-115    C    0.85186014    0.95172001    0.48159990    -0.22290000
opls_145-116    C    0.89739003    0.99880028    0.35130025    -0.22480000
opls_916-117    C    0.94892995    0.95822020    0.21999943    0.08680000
opls_145-118    C    0.95913014    0.87062009    0.22730037    -0.22370000
opls_145-119    C    0.91489001    0.82514981    0.36309940    -0.22290000
opls_136-120    C    0.74999968    0.74999968    0.99900024    -0.32310000
opls_136-121    C    0.25000032    0.25000032    0.49900024    -0.32310000
opls_136-122    C    0.25000032    0.25000032    0.00099976    -0.32330000
opls_136-123    C    0.74999968    0.74999968    0.50099976    -0.32330000
opls_239-124    N    0.01226990    0.50620026    0.41299970    0.20820000
opls_239-125    N    0.48773010    0.99379974    0.41299970    0.20830000
opls_239-126    N    0.49379974    0.51226990    0.91299970    0.20820000
opls_239-127    N    0.00620026    0.98773010    0.91299970    0.20820000
opls_239-128    N    0.98773010    0.49379974    0.58700030    0.20820000
opls_239-129    N    0.51226990    0.00620026    0.58700030    0.20820000
opls_239-130    N    0.50620026    0.48773010    0.08700030    0.20830000
opls_239-131    N    0.99379974    0.01226990    0.08700030    0.20820000
opls_272-132    O    0.08391026    0.48190015    0.35230001    -0.44100000
opls_272-133    O    0.41608974    0.01809985    0.35230001    -0.44110000
opls_272-134    O    0.51809985    0.58391026    0.85230001    -0.44110000
opls_272-135    O    0.98190015    0.91608974    0.85230001    -0.44100000
opls_272-136    O    0.91608974    0.51809985    0.64769999    -0.44100000
opls_272-137    O    0.58391026    0.98190015    0.64769999    -0.44100000
opls_272-138    O    0.48190015    0.41608974    0.14769999    -0.44100000
opls_272-139    O    0.01809985    0.08391026    0.14769999    -0.44110000
