#======================================================================
# Crystal Data Generated By AuToFF
#----------------------------------------------------------------------

data_AuToFF_phase_1

_cell_length_a                         32.8100
_cell_length_b                         32.8100
_cell_length_c                         3.4100
_cell_angle_alpha                      90.00
_cell_angle_beta                       90.00
_cell_angle_gamma                      120.00
_symmetry_space_group_name_H-M_alt     'P 1'
_symmetry_space_group_IT_number        1

loop_
_space_group_symop_operation_xyz
   'x, y, z'

loop_
   _atom_site_label
   _atom_site_type_symbol
   _atom_site_fract_x
   _atom_site_fract_y
   _atom_site_fract_z
   _atom_site_charge
opls_701-0    C    0.49407014    0.45597022    0.90546921    -0.23960000
opls_700-1    C    0.53924009    0.49421013    0.82575073    0.09390000
opls_701-2    C    0.54419991    0.53938001    0.82409091    -0.04880000
opls_908-3    C    0.58518992    0.58316009    0.64294135    -0.09090000
opls_145-4    C    0.62419013    0.51337021    0.70138123    -0.09000000
opls_145-5    C    0.65507996    0.50109012    0.52343988    -0.08330000
opls_700-6    C    0.63703987    0.45673990    0.34797067    0.03900000
opls_145-7    C    0.58868003    0.42489008    0.36570088    -0.11830000
opls_145-8    C    0.55875004    0.43804016    0.51468035    -0.11480000
opls_700-9    C    0.57510991    0.48275991    0.67985924    0.07540000
opls_145-10    C    0.61874987    0.32255003    0.82512903    -0.19120000
opls_145-11    C    0.65530006    0.36872996    0.83883871    0.21980000
opls_561-12    C    0.01115995    0.35214007    0.99578006    -0.08420000
opls_561-13    C    0.05046007    0.34798019    0.06346041    -0.08320000
opls_558-14    C    0.07201015    0.41504011    0.79995894    0.11070000
opls_142-15    C    0.13621008    0.39687003    0.89083871    0.04420000
opls_261-16    C    0.54722008    0.72293026    0.97685924    0.04530000
opls_261-17    C    0.53582994    0.76103996    0.86248974    -0.19230000
opls_261-18    C    0.33178987    0.55818991    0.16733138    0.26000000
opls_701-19    C    0.54402981    0.03809984    0.90546921    -0.23950000
opls_700-20    C    0.50579000    0.04503016    0.82575073    0.09390000
opls_701-21    C    0.46062005    0.00482011    0.82409091    -0.04880000
opls_908-22    C    0.41684004    0.00202996    0.64294135    -0.09100000
opls_145-23    C    0.48663003    0.11081994    0.70138123    -0.09000000
opls_145-24    C    0.49891003    0.15399012    0.52343988    -0.08330000
opls_700-25    C    0.54326009    0.18030012    0.34797067    0.03900000
opls_145-26    C    0.57510993    0.16379012    0.36570088    -0.11820000
opls_145-27    C    0.56196002    0.12071004    0.51468035    -0.11480000
opls_700-28    C    0.51723992    0.09235001    0.67985924    0.07540000
opls_145-29    C    0.67744985    0.29619991    0.82512903    -0.19120000
opls_145-30    C    0.63127001    0.28656989    0.83883871    0.21980000
opls_561-31    C    0.64785997    0.65902016    0.99578006    -0.08430000
opls_561-32    C    0.65201994    0.70247998    0.06346041    -0.08320000
opls_558-33    C    0.58495992    0.65697014    0.79995894    0.11070000
opls_142-34    C    0.60312990    0.73933996    0.89083871    0.04420000
opls_261-35    C    0.27707011    0.82429017    0.97685924    0.04530000
opls_261-36    C    0.23896011    0.77479008    0.86248974    -0.19240000
opls_261-37    C    0.44181015    0.77360018    0.16733138    0.26000000
opls_701-38    C    0.96190005    0.50592994    0.90546921    -0.23960000
opls_700-39    C    0.95497009    0.46076006    0.82575073    0.09390000
opls_701-40    C    0.99518004    0.45579988    0.82409091    -0.04880000
opls_908-41    C    0.99797004    0.41480994    0.64294135    -0.09100000
opls_145-42    C    0.88918002    0.37581020    0.70138123    -0.09000000
opls_145-43    C    0.84601019    0.34492011    0.52343988    -0.08330000
opls_700-44    C    0.81970004    0.36295998    0.34797067    0.03900000
opls_145-45    C    0.83621021    0.41132015    0.36570088    -0.11830000
opls_145-46    C    0.87929012    0.44125016    0.51468035    -0.11480000
opls_700-47    C    0.90765016    0.42489008    0.67985924    0.07540000
opls_145-48    C    0.70379998    0.38125007    0.82512903    -0.19120000
opls_145-49    C    0.71342993    0.34470015    0.83883871    0.21980000
opls_561-50    C    0.34097995    0.98884012    0.99578006    -0.08430000
opls_561-51    C    0.29752017    0.94954018    0.06346041    -0.08320000
opls_558-52    C    0.34303010    0.92799011    0.79995894    0.11070000
opls_142-53    C    0.26066002    0.86379002    0.89083871    0.04420000
opls_261-54    C    0.17570999    0.45277992    0.97685924    0.04530000
opls_261-55    C    0.22520994    0.46416997    0.86248974    -0.19240000
opls_261-56    C    0.22640016    0.66821026    0.16733138    0.26000000
opls_701-57    C    0.50593003    0.54403013    0.90546921    -0.23960000
opls_700-58    C    0.46076009    0.50579022    0.82575073    0.09390000
opls_701-59    C    0.45580009    0.46061999    0.82409091    -0.04880000
opls_908-60    C    0.41481008    0.41683991    0.64294135    -0.09100000
opls_145-61    C    0.37581004    0.48663014    0.70138123    -0.09000000
opls_145-62    C    0.34492022    0.49891023    0.52343988    -0.08330000
opls_700-63    C    0.36296013    0.54326010    0.34797067    0.03900000
opls_145-64    C    0.41131997    0.57510992    0.36570088    -0.11830000
opls_145-65    C    0.44125014    0.56196020    0.51468035    -0.11480000
opls_700-66    C    0.42489009    0.51724009    0.67985924    0.07540000
opls_145-67    C    0.38125013    0.67744997    0.82512903    -0.19110000
opls_145-68    C    0.34469994    0.63127004    0.83883871    0.21980000
opls_561-69    C    0.98884005    0.64785993    0.99578006    -0.08430000
opls_561-70    C    0.94954010    0.65202016    0.06346041    -0.08320000
opls_558-71    C    0.92799003    0.58496024    0.79995894    0.11070000
opls_142-72    C    0.86378992    0.60312997    0.89083871    0.04420000
opls_261-73    C    0.45278009    0.27707009    0.97685924    0.04540000
opls_261-74    C    0.46417006    0.23896004    0.86248974    -0.19230000
opls_261-75    C    0.66821013    0.44181009    0.16733138    0.26000000
opls_701-76    C    0.45597019    0.96190016    0.90546921    -0.23950000
opls_700-77    C    0.49421018    0.95497019    0.82575073    0.09390000
opls_701-78    C    0.53938012    0.99518024    0.82409091    -0.04880000
opls_908-79    C    0.58315996    0.99797004    0.64294135    -0.09100000
opls_145-80    C    0.51336997    0.88918006    0.70138123    -0.08990000
opls_145-81    C    0.50109015    0.84601023    0.52343988    -0.08330000
opls_700-82    C    0.45674009    0.81970023    0.34797067    0.03900000
opls_145-83    C    0.42489024    0.83621023    0.36570088    -0.11830000
opls_145-84    C    0.43803998    0.87928996    0.51468035    -0.11480000
opls_700-85    C    0.48276008    0.90764999    0.67985924    0.07540000
opls_145-86    C    0.32255015    0.70380009    0.82512903    -0.19120000
opls_145-87    C    0.36872999    0.71343011    0.83883871    0.21980000
opls_561-88    C    0.35214020    0.34098019    0.99578006    -0.08430000
opls_561-89    C    0.34798006    0.29752002    0.06346041    -0.08320000
opls_558-90    C    0.41504025    0.34303021    0.79995894    0.11070000
opls_142-91    C    0.39687010    0.26066004    0.89083871    0.04430000
opls_261-92    C    0.72293007    0.17571018    0.97685924    0.04530000
opls_261-93    C    0.76103989    0.22520992    0.86248974    -0.19230000
opls_261-94    C    0.55819003    0.22640017    0.16733138    0.26010000
opls_701-95    C    0.03809995    0.49407006    0.90546921    -0.23950000
opls_700-96    C    0.04502991    0.53923994    0.82575073    0.09390000
opls_701-97    C    0.00481996    0.54420012    0.82409091    -0.04880000
opls_908-98    C    0.00202996    0.58519006    0.64294135    -0.09090000
opls_145-99    C    0.11082016    0.62419015    0.70138123    -0.09000000
opls_145-100    C    0.15398998    0.65508024    0.52343988    -0.08330000
opls_700-101    C    0.18029996    0.63704002    0.34797067    0.03900000
opls_145-102    C    0.16378996    0.58868020    0.36570088    -0.11830000
opls_145-103    C    0.12071005    0.55875019    0.51468035    -0.11480000
opls_700-104    C    0.09234984    0.57510992    0.67985924    0.07540000
opls_145-105    C    0.29620002    0.61874993    0.82512903    -0.19110000
opls_145-106    C    0.28657025    0.65530020    0.83883871    0.21980000
opls_561-107    C    0.65902005    0.01115988    0.99578006    -0.08430000
opls_561-108    C    0.70248001    0.05046017    0.06346041    -0.08320000
opls_558-109    C    0.65696990    0.07200989    0.79995894    0.11070000
opls_142-110    C    0.73933998    0.13620998    0.89083871    0.04420000
opls_261-111    C    0.82429001    0.54722008    0.97685924    0.04530000
opls_261-112    C    0.77479006    0.53583003    0.86248974    -0.19230000
opls_261-113    C    0.77360002    0.33179010    0.16733138    0.26010000
opls_557-114    N    0.02511005    0.39476017    0.83938123    0.04710000
opls_557-115    N    0.08856022    0.38824021    0.94663050    -0.09910000
opls_750-116    N    0.35506000    0.59621022    0.96404985    -0.25990000
opls_557-117    N    0.60523996    0.63035008    0.83938123    0.04710000
opls_557-118    N    0.61176020    0.70032016    0.94663050    -0.09910000
opls_750-119    N    0.40379024    0.75885021    0.96404985    -0.25990000
opls_557-120    N    0.36965017    0.97489010    0.83938123    0.04710000
opls_557-121    N    0.29968006    0.91143998    0.94663050    -0.09910000
opls_750-122    N    0.24114994    0.64493992    0.96404985    -0.25980000
opls_557-123    N    0.97489013    0.60524018    0.83938123    0.04710000
opls_557-124    N    0.91143996    0.61176014    0.94663050    -0.09910000
opls_750-125    N    0.64494018    0.40379014    0.96404985    -0.25990000
opls_557-126    N    0.39476004    0.36964992    0.83938123    0.04710000
opls_557-127    N    0.38823998    0.29968020    0.94663050    -0.09910000
opls_750-128    N    0.59620994    0.24115014    0.96404985    -0.25990000
opls_557-129    N    0.63034983    0.02510990    0.83938123    0.04710000
opls_557-130    N    0.70031994    0.08856002    0.94663050    -0.09910000
opls_750-131    N    0.75885006    0.35506008    0.96404985    -0.25990000
opls_702-132    H    0.49267010    0.44687022    0.22965982    0.11090000
opls_140-133    H    0.57421013    0.58694023    0.33400880    0.05030000
opls_140-134    H    0.61686015    0.57788000    0.61434018    0.05030000
opls_146-135    H    0.63871001    0.54823013    0.86441935    0.04580000
opls_146-136    H    0.69453990    0.52709992    0.52224047    0.04580000
opls_146-137    H    0.57406005    0.38738008    0.25395894    0.04590000
opls_146-138    H    0.51917999    0.41255016    0.50790909    0.04580000
opls_146-139    H    0.58081000    0.31468004    0.80392962    0.04580000
opls_564-140    H    0.97217018    0.32667014    0.04975073    0.02700000
opls_564-141    H    0.04640015    0.31429010    0.19700000    0.02710000
opls_563-142    H    0.09277996    0.45103995    0.65475073    0.03640000
opls_144-143    H    0.14218992    0.36684007    0.79943988    0.02700000
opls_702-144    H    0.48829992    0.42405001    0.72824927    0.11070000
opls_702-145    H    0.55882987    0.54821993    0.13502933    0.04580000
MOF2_H_-146    H    0.52731003    0.78955026    0.77694135    0.04580000
opls_702-147    H    0.55313003    0.04579984    0.22965982    0.11070000
opls_140-148    H    0.41305994    0.98727014    0.33400880    0.05030000
opls_140-149    H    0.42212001    0.03898003    0.61434018    0.05030000
opls_146-150    H    0.45177011    0.09048018    0.86441935    0.04580000
opls_146-151    H    0.47290015    0.16744005    0.52224047    0.04580000
opls_146-152    H    0.61262010    0.18668001    0.25395894    0.04580000
opls_146-153    H    0.58745009    0.10663015    0.50790909    0.04590000
opls_146-154    H    0.68532019    0.26613018    0.80392962    0.04580000
opls_564-155    H    0.67333011    0.64550020    0.04975073    0.02700000
opls_564-156    H    0.68571006    0.73211015    0.19700000    0.02700000
opls_563-157    H    0.54895997    0.64174012    0.65475073    0.03640000
opls_144-158    H    0.63315992    0.77535001    0.79943988    0.02700000
opls_702-159    H    0.57595009    0.06425007    0.72824927    0.11070000
opls_702-160    H    0.45177993    0.01061015    0.13502933    0.04580000
MOF2_H_-161    H    0.21045001    0.73776012    0.77694135    0.04580000
opls_702-162    H    0.95419987    0.50732994    0.22965982    0.11070000
opls_140-163    H    0.01273010    0.42578998    0.33400880    0.05030000
opls_140-164    H    0.96101984    0.38313996    0.61434018    0.05030000
opls_146-165    H    0.90952006    0.36129004    0.86441935    0.04580000
opls_146-166    H    0.83255995    0.30546003    0.52224047    0.04580000
opls_146-167    H    0.81331985    0.42593991    0.25395894    0.04580000
opls_146-168    H    0.89337009    0.48082004    0.50790909    0.04580000
opls_146-169    H    0.73386998    0.41919013    0.80392962    0.04590000
opls_564-170    H    0.35449989    0.02783001    0.04975073    0.02700000
opls_564-171    H    0.26788997    0.95360011    0.19700000    0.02700000
opls_563-172    H    0.35826024    0.90722028    0.65475073    0.03640000
opls_144-173    H    0.22465003    0.85781028    0.79943988    0.02700000
opls_702-174    H    0.93574999    0.51169992    0.72824927    0.11070000
opls_702-175    H    0.98938990    0.44116992    0.13502933    0.04580000
MOF2_H_-176    H    0.26223984    0.47268997    0.77694135    0.04580000
opls_702-177    H    0.50733008    0.55313013    0.22965982    0.11080000
opls_140-178    H    0.42579004    0.41306012    0.33400880    0.05030000
opls_140-179    H    0.38313985    0.42212000    0.61434018    0.05030000
opls_146-180    H    0.36129017    0.45177022    0.86441935    0.04580000
opls_146-181    H    0.30546010    0.47290008    0.52224047    0.04580000
opls_146-182    H    0.42593995    0.61261992    0.25395894    0.04580000
opls_146-183    H    0.48082019    0.58745019    0.50790909    0.04580000
opls_146-184    H    0.41919000    0.68531996    0.80392962    0.04580000
opls_564-185    H    0.02783000    0.67333022    0.04975073    0.02700000
opls_564-186    H    0.95360002    0.68571025    0.19700000    0.02700000
opls_563-187    H    0.90722004    0.54896005    0.65475073    0.03640000
opls_144-188    H    0.85781008    0.63315993    0.79943988    0.02700000
opls_702-189    H    0.51170008    0.57594999    0.72824927    0.11070000
opls_702-190    H    0.44117013    0.45178007    0.13502933    0.04580000
MOF2_H_-191    H    0.47269015    0.21045009    0.77694135    0.04580000
opls_702-192    H    0.44686997    0.95420016    0.22965982    0.11080000
opls_140-193    H    0.58694024    0.01273021    0.33400880    0.05030000
opls_140-194    H    0.57787999    0.96101997    0.61434018    0.05030000
opls_146-195    H    0.54823007    0.90952017    0.86441935    0.04580000
opls_146-196    H    0.52709985    0.83255995    0.52224047    0.04580000
opls_146-197    H    0.38737990    0.81331999    0.25395894    0.04580000
opls_146-198    H    0.41255008    0.89337020    0.50790909    0.04590000
opls_146-199    H    0.31467998    0.73387018    0.80392962    0.04580000
opls_564-200    H    0.32667007    0.35450015    0.04975073    0.02700000
opls_564-201    H    0.31429012    0.26789021    0.19700000    0.02700000
opls_563-202    H    0.45104003    0.35825988    0.65475073    0.03640000
opls_144-203    H    0.36684008    0.22464999    0.79943988    0.02700000
opls_702-204    H    0.42405009    0.93575029    0.72824927    0.11070000
opls_702-205    H    0.54822024    0.98939020    0.13502933    0.04580000
MOF2_H_-206    H    0.78954999    0.26223988    0.77694135    0.04580000
opls_702-207    H    0.04580013    0.49267006    0.22965982    0.11080000
opls_140-208    H    0.98726990    0.57421002    0.33400880    0.05030000
opls_140-209    H    0.03898016    0.61686004    0.61434018    0.05030000
opls_146-210    H    0.09047994    0.63870996    0.86441935    0.04580000
opls_146-211    H    0.16744005    0.69453997    0.52224047    0.04580000
opls_146-212    H    0.18668015    0.57406009    0.25395894    0.04590000
opls_146-213    H    0.10662991    0.51917996    0.50790909    0.04580000
opls_146-214    H    0.26613019    0.58081022    0.80392962    0.04580000
opls_564-215    H    0.64550011    0.97216999    0.04975073    0.02700000
opls_564-216    H    0.73211003    0.04639989    0.19700000    0.02700000
opls_563-217    H    0.64173993    0.09278008    0.65475073    0.03640000
opls_144-218    H    0.77535014    0.14219007    0.79943988    0.02700000
opls_702-219    H    0.06425001    0.48830008    0.72824927    0.11070000
opls_702-220    H    0.01061010    0.55883008    0.13502933    0.04580000
MOF2_H_-221    H    0.73776016    0.52731003    0.77694135    0.04580000
