#======================================================================
# Crystal Data Generated By AuToFF
#----------------------------------------------------------------------

data_AuToFF_phase_1

_cell_length_a                         35.7527
_cell_length_b                         35.7527
_cell_length_c                         3.6700
_cell_angle_alpha                      90.00
_cell_angle_beta                       90.00
_cell_angle_gamma                      120.00
_symmetry_space_group_name_H-M_alt     'P 1'
_symmetry_space_group_IT_number        1

loop_
_space_group_symop_operation_xyz
   'x, y, z'

loop_
   _atom_site_label
   _atom_site_type_symbol
   _atom_site_fract_x
   _atom_site_fract_y
   _atom_site_fract_z
   _atom_site_charge
opls_520-0    N    0.62504014    0.31419012    0.00947956    -0.39870000
opls_750-1    N    0.56785995    0.45350009    0.99998093    -0.20770000
opls_520-2    N    0.68581010    0.31084997    0.00947956    -0.39870000
opls_750-3    N    0.54649997    0.11436000    0.99998093    -0.20770000
opls_520-4    N    0.68915004    0.37495991    0.00947956    -0.39870000
opls_750-5    N    0.88564009    0.43213991    0.99998093    -0.20770000
opls_520-6    N    0.37495986    0.68580988    0.00947956    -0.39870000
opls_750-7    N    0.43214005    0.54649991    0.99998093    -0.20770000
opls_520-8    N    0.31418990    0.68915003    0.00947956    -0.39870000
opls_750-9    N    0.45350003    0.88564000    0.99998093    -0.20770000
opls_520-10    N    0.31084996    0.62504009    0.00947956    -0.39870000
opls_750-11    N    0.11435991    0.56786009    0.99998093    -0.20770000
opls_531-12    C    0.64402001    0.29140984    0.00952044    0.32510000
opls_522-13    C    0.62635010    0.38070003    0.00874932    0.00050000
opls_523-14    C    0.64908007    0.42379989    0.96355041    -0.22610000
opls_145-15    C    0.62912994    0.44694996    0.96137057    -0.23010000
opls_145-16    C    0.58633997    0.42782989    0.00338965    0.18570000
opls_145-17    C    0.56346001    0.38475006    0.05319074    -0.22790000
opls_523-18    C    0.58330004    0.36146983    0.05410899    -0.22610000
opls_142-19    C    0.52868011    0.44130996    0.98837875    0.08550000
opls_145-20    C    0.51429987    0.47155986    0.98868937    0.00860000
opls_145-21    C    0.54236004    0.51419980    0.98894005    -0.22690000
opls_145-22    C    0.52816987    0.54239982    0.98832970    -0.22690000
opls_531-23    C    0.70859003    0.35260983    0.00952044    0.32510000
opls_522-24    C    0.61929996    0.24565001    0.00874932    0.00050000
opls_523-25    C    0.57619998    0.22528005    0.96355041    -0.22610000
opls_145-26    C    0.55305001    0.18217988    0.96137057    -0.23010000
opls_145-27    C    0.57216985    0.15850982    0.00338965    0.18570000
opls_145-28    C    0.61525006    0.17870990    0.05319074    -0.22790000
opls_523-29    C    0.63853003    0.22183010    0.05410899    -0.22610000
opls_142-30    C    0.55869009    0.08737015    0.98837875    0.08550000
opls_145-31    C    0.52843999    0.04274007    0.98868937    0.00860000
opls_145-32    C    0.48579988    0.02815997    0.98894005    -0.22690000
opls_145-33    C    0.45760011    0.98577000    0.98832970    -0.22690000
opls_531-34    C    0.64739008    0.35598001    0.00952044    0.32510000
opls_522-35    C    0.75434995    0.37364995    0.00874932    0.00050000
opls_523-36    C    0.77471994    0.35092006    0.96355041    -0.22610000
opls_145-37    C    0.81781988    0.37086984    0.96137057    -0.23010000
opls_145-38    C    0.84149002    0.41365996    0.00338965    0.18570000
opls_145-39    C    0.82128993    0.43654004    0.05319074    -0.22790000
opls_523-40    C    0.77816994    0.41670007    0.05410899    -0.22610000
opls_142-41    C    0.91263008    0.47131989    0.98837875    0.08560000
opls_145-42    C    0.95726014    0.48570008    0.98868937    0.00860000
opls_145-43    C    0.97183992    0.45763991    0.98894005    -0.22690000
opls_145-44    C    0.01422985    0.47182986    0.98832970    -0.22690000
opls_531-45    C    0.35597983    0.70858984    0.00952044    0.32510000
opls_522-46    C    0.37364990    0.61929997    0.00874932    0.00050000
opls_523-47    C    0.35091977    0.57619979    0.96355041    -0.22600000
opls_145-48    C    0.37087006    0.55305004    0.96137057    -0.23010000
opls_145-49    C    0.41365987    0.57216978    0.00338965    0.18580000
opls_145-50    C    0.43653999    0.61524994    0.05319074    -0.22790000
opls_523-51    C    0.41669980    0.63852985    0.05410899    -0.22610000
opls_142-52    C    0.47131989    0.55869004    0.98837875    0.08550000
opls_145-53    C    0.48569997    0.52843982    0.98868937    0.00860000
opls_145-54    C    0.45763980    0.48579987    0.98894005    -0.22690000
opls_145-55    C    0.47182997    0.45759986    0.98832970    -0.22690000
opls_531-56    C    0.29140981    0.64738985    0.00952044    0.32510000
opls_522-57    C    0.38070004    0.75434999    0.00874932    0.00050000
opls_523-58    C    0.42380002    0.77471995    0.96355041    -0.22610000
opls_145-59    C    0.44694982    0.81781980    0.96137057    -0.23010000
opls_145-60    C    0.42782999    0.84148985    0.00338965    0.18570000
opls_145-61    C    0.38474978    0.82128978    0.05319074    -0.22780000
opls_523-62    C    0.36146997    0.77816990    0.05410899    -0.22600000
opls_142-63    C    0.44130991    0.91262985    0.98837875    0.08560000
opls_145-64    C    0.47156001    0.95725993    0.98868937    0.00860000
opls_145-65    C    0.51420012    0.97184003    0.98894005    -0.22690000
opls_145-66    C    0.54239989    0.01423000    0.98832970    -0.22690000
opls_531-67    C    0.35260992    0.64401999    0.00952044    0.32510000
opls_522-68    C    0.24565005    0.62635005    0.00874932    0.00050000
opls_523-69    C    0.22528006    0.64907994    0.96355041    -0.22610000
opls_145-70    C    0.18217995    0.62912984    0.96137057    -0.23000000
opls_145-71    C    0.15850998    0.58634004    0.00338965    0.18570000
opls_145-72    C    0.17871007    0.56345996    0.05319074    -0.22790000
opls_523-73    C    0.22183006    0.58329993    0.05410899    -0.22610000
opls_142-74    C    0.08736976    0.52867978    0.98837875    0.08550000
opls_145-75    C    0.04273986    0.51429992    0.98868937    0.00860000
opls_145-76    C    0.02816008    0.54236009    0.98894005    -0.22690000
opls_145-77    C    0.98576998    0.52816982    0.98832970    -0.22680000
opls_146-78    H    0.44966007    0.42487990    0.98813079    0.21050000
opls_526-79    H    0.68223993    0.43947001    0.92710899    0.21030000
opls_146-80    H    0.64687011    0.48005006    0.92431880    0.21040000
opls_146-81    H    0.53055013    0.36887001    0.09710899    0.21050000
opls_526-82    H    0.56509008    0.32839008    0.09438965    0.21070000
opls_144-83    H    0.50575980    0.40895980    0.97334060    0.10190000
opls_146-84    H    0.57523996    0.52556992    0.98889918    0.21050000
opls_146-85    H    0.57512014    0.02478010    0.98813079    0.21060000
opls_526-86    H    0.56053007    0.24277010    0.92710899    0.21030000
opls_146-87    H    0.51994996    0.16682013    0.92431880    0.21040000
opls_146-88    H    0.63112995    0.16168008    0.09710899    0.21050000
opls_526-89    H    0.67160999    0.23669991    0.09438965    0.21070000
opls_144-90    H    0.59104007    0.09679986    0.97334060    0.10190000
opls_146-91    H    0.47443014    0.04967001    0.98889918    0.21050000
opls_146-92    H    0.97522007    0.55034001    0.98813079    0.21050000
opls_526-93    H    0.75723000    0.31775989    0.92710899    0.21030000
opls_146-94    H    0.83317993    0.35312981    0.92431880    0.21050000
opls_146-95    H    0.83831993    0.46944990    0.09710899    0.21050000
opls_526-96    H    0.76329994    0.43491001    0.09438965    0.21070000
opls_144-97    H    0.90319997    0.49424001    0.97334060    0.10190000
opls_146-98    H    0.95032990    0.42476007    0.98889918    0.21050000
opls_146-99    H    0.55033976    0.57511978    0.98813079    0.21050000
opls_526-100    H    0.31776007    0.56052999    0.92710899    0.21030000
opls_146-101    H    0.35312989    0.51994994    0.92431880    0.21040000
opls_146-102    H    0.46944987    0.63112999    0.09710899    0.21050000
opls_526-103    H    0.43490992    0.67160992    0.09438965    0.21070000
opls_144-104    H    0.49424004    0.59103988    0.97334060    0.10190000
opls_146-105    H    0.42476004    0.47443008    0.98889918    0.21050000
opls_146-106    H    0.42487986    0.97521990    0.98813079    0.21060000
opls_526-107    H    0.43946993    0.75722990    0.92710899    0.21030000
opls_146-108    H    0.48005004    0.83317987    0.92431880    0.21040000
opls_146-109    H    0.36887005    0.83831992    0.09710899    0.21050000
opls_526-110    H    0.32838985    0.76329977    0.09438965    0.21070000
opls_144-111    H    0.40895977    0.90319981    0.97334060    0.10190000
opls_146-112    H    0.52556986    0.95032999    0.98889918    0.21050000
opls_146-113    H    0.02477993    0.44965999    0.98813079    0.21050000
opls_526-114    H    0.24276984    0.68223979    0.92710899    0.21030000
opls_146-115    H    0.16681991    0.64686987    0.92431880    0.21050000
opls_146-116    H    0.16168007    0.53055010    0.09710899    0.21050000
opls_526-117    H    0.23670006    0.56508999    0.09438965    0.21070000
opls_144-118    H    0.09680003    0.50575999    0.97334060    0.10190000
opls_146-119    H    0.04967010    0.57523993    0.98889918    0.21050000
