#======================================================================
# Crystal Data Generated By AuToFF
#----------------------------------------------------------------------

data_AuToFF_phase_1

_cell_length_a                         41.8600
_cell_length_b                         41.8600
_cell_length_c                         3.3900
_cell_angle_alpha                      90.00
_cell_angle_beta                       90.00
_cell_angle_gamma                      120.00
_symmetry_space_group_name_H-M_alt     'P 1'
_symmetry_space_group_IT_number        1

loop_
_space_group_symop_operation_xyz
   'x, y, z'

loop_
   _atom_site_label
   _atom_site_type_symbol
   _atom_site_fract_x
   _atom_site_fract_y
   _atom_site_fract_z
   _atom_site_charge
opls_281-0    O    0.54037011    0.00014013    0.26397050    -0.33240000
opls_167-1    O    0.43545004    0.63414995    0.51686136    -0.31420000
opls_167-2    O    0.37883990    0.57414993    0.58164012    -0.31400000
opls_281-3    O    0.99986009    0.54022998    0.26397050    -0.33200000
opls_167-4    O    0.36585004    0.80130018    0.51686136    -0.31420000
opls_167-5    O    0.42585006    0.80469008    0.58164012    -0.31400000
opls_281-6    O    0.45977017    0.45963016    0.26397050    -0.33200000
opls_167-7    O    0.19870006    0.56455014    0.51686136    -0.31420000
opls_167-8    O    0.19531005    0.62115999    0.58164012    -0.31400000
opls_281-9    O    0.45963002    0.99986014    0.26397050    -0.33240000
opls_167-10    O    0.56454996    0.36585005    0.51686136    -0.31420000
opls_167-11    O    0.62116010    0.42585007    0.58164012    -0.31400000
opls_281-12    O    0.00013991    0.45977002    0.26397050    -0.33240000
opls_167-13    O    0.63415009    0.19870009    0.51686136    -0.31420000
opls_167-14    O    0.57414994    0.19530992    0.58164012    -0.31400000
opls_281-15    O    0.54022997    0.54037011    0.26397050    -0.33200000
opls_167-16    O    0.80130008    0.43545014    0.51686136    -0.31420000
opls_167-17    O    0.80468995    0.37884001    0.58164012    -0.31400000
opls_280-18    C    0.52045017    0.01269012    0.35205900    0.10940000
opls_700-19    C    0.53830007    0.05353993    0.42356047    0.01280000
opls_145-20    C    0.57673987    0.07581992    0.37107965    -0.11420000
opls_145-21    C    0.59444002    0.11419013    0.41558112    -0.04900000
opls_145-22    C    0.57411005    0.13148002    0.51015044    -0.21920000
opls_145-23    C    0.53598003    0.10961988    0.57328909    -0.04340000
opls_145-24    C    0.51833002    0.07108002    0.53743953    -0.11660000
opls_145-25    C    0.33047998    0.73344014    0.53748968    -0.22500000
opls_700-26    C    0.33134002    0.69982004    0.56138053    0.03710000
opls_700-27    C    0.36660002    0.70173994    0.56943953    0.03700000
opls_145-28    C    0.39914020    0.73721016    0.58831858    -0.21700000
opls_166-29    C    0.39643004    0.76884002    0.57540118    0.19630000
opls_166-30    C    0.36307010    0.76699018    0.54330973    0.19710000
opls_280-31    C    0.98731003    0.50777009    0.35205900    0.10940000
opls_700-32    C    0.94646005    0.48475001    0.42356047    0.01280000
opls_145-33    C    0.92419012    0.50093016    0.37107965    -0.11420000
opls_145-34    C    0.88580995    0.48025010    0.41558112    -0.04870000
opls_145-35    C    0.86851993    0.44262991    0.51015044    -0.21890000
opls_145-36    C    0.89037992    0.42634990    0.57328909    -0.04340000
opls_145-37    C    0.92892008    0.44725010    0.53743953    -0.11020000
opls_145-38    C    0.26655999    0.59703016    0.53748968    -0.21740000
opls_700-39    C    0.30017998    0.63152002    0.56138053    0.03710000
opls_700-40    C    0.29825998    0.66486014    0.56943953    0.03700000
opls_145-41    C    0.26278993    0.66193008    0.58831858    -0.21700000
opls_166-42    C    0.23116003    0.62759001    0.57540118    0.19630000
opls_166-43    C    0.23302000    0.59608014    0.54330973    0.19710000
opls_280-44    C    0.49223008    0.47954999    0.35205900    0.10950000
opls_700-45    C    0.51524997    0.46170013    0.42356047    0.01240000
opls_145-46    C    0.49907010    0.42326013    0.37107965    -0.11420000
opls_145-47    C    0.51974993    0.40556005    0.41558112    -0.04900000
opls_145-48    C    0.55737002    0.42589007    0.51015044    -0.21890000
opls_145-49    C    0.57364995    0.46402994    0.57328909    -0.04690000
opls_145-50    C    0.55275004    0.48167016    0.53743953    -0.11020000
opls_145-51    C    0.40297001    0.66952004    0.53748968    -0.22500000
opls_700-52    C    0.36848000    0.66865995    0.56138053    0.03710000
opls_700-53    C    0.33514000    0.63339992    0.56943953    0.03700000
opls_145-54    C    0.33807001    0.60086004    0.58831858    -0.21690000
opls_166-55    C    0.37240993    0.60356997    0.57540118    0.19640000
opls_166-56    C    0.40392006    0.63692995    0.54330973    0.19710000
opls_280-57    C    0.47954996    0.98731015    0.35205900    0.10940000
opls_700-58    C    0.46169993    0.94646007    0.42356047    0.01280000
opls_145-59    C    0.42326008    0.92419001    0.37107965    -0.11420000
opls_145-60    C    0.40556011    0.88581015    0.41558112    -0.04900000
opls_145-61    C    0.42588995    0.86851998    0.51015044    -0.21890000
opls_145-62    C    0.46403000    0.89038012    0.57328909    -0.04340000
opls_145-63    C    0.48166998    0.92891998    0.53743953    -0.11660000
opls_145-64    C    0.66952015    0.26656013    0.53748968    -0.21740000
opls_700-65    C    0.66865998    0.30017996    0.56138053    0.03710000
opls_700-66    C    0.63339998    0.29826006    0.56943953    0.03700000
opls_145-67    C    0.60085994    0.26279012    0.58831858    -0.21700000
opls_166-68    C    0.60356996    0.23115998    0.57540118    0.19630000
opls_166-69    C    0.63692998    0.23302002    0.54330973    0.19710000
opls_280-70    C    0.01269005    0.49224011    0.35205900    0.10940000
opls_700-71    C    0.05353995    0.51524999    0.42356047    0.01240000
opls_145-72    C    0.07582006    0.49907012    0.37107965    -0.11420000
opls_145-73    C    0.11419019    0.51975018    0.41558112    -0.04890000
opls_145-74    C    0.13148007    0.55737009    0.51015044    -0.21890000
opls_145-75    C    0.10962008    0.57365010    0.57328909    -0.04690000
opls_145-76    C    0.07108006    0.55275018    0.53743953    -0.11010000
opls_145-77    C    0.73344014    0.40297011    0.53748968    -0.22490000
opls_700-78    C    0.69982002    0.36847998    0.56138053    0.03710000
opls_700-79    C    0.70174016    0.33514014    0.56943953    0.03700000
opls_145-80    C    0.73721007    0.33806992    0.58831858    -0.21700000
opls_166-81    C    0.76883997    0.37240999    0.57540118    0.19630000
opls_166-82    C    0.76699017    0.40392013    0.54330973    0.19710000
opls_280-83    C    0.50776992    0.52045001    0.35205900    0.10940000
opls_700-84    C    0.48475017    0.53830015    0.42356047    0.01240000
opls_145-85    C    0.50093004    0.57674015    0.37107965    -0.11420000
opls_145-86    C    0.48025007    0.59443995    0.41558112    -0.04900000
opls_145-87    C    0.44262998    0.57410993    0.51015044    -0.21880000
opls_145-88    C    0.42635000    0.53597999    0.57328909    -0.04340000
opls_145-89    C    0.44725010    0.51833011    0.53743953    -0.11660000
opls_145-90    C    0.59702999    0.33047996    0.53748968    -0.22500000
opls_700-91    C    0.63152000    0.33134005    0.56138053    0.03710000
opls_700-92    C    0.66486000    0.36660008    0.56943953    0.03700000
opls_145-93    C    0.66192999    0.39913996    0.58831858    -0.21700000
opls_166-94    C    0.62759007    0.39643003    0.57540118    0.19630000
opls_166-95    C    0.59607994    0.36307005    0.54330973    0.19720000
opls_146-96    H    0.59302990    0.06326000    0.28889086    0.12760000
opls_146-97    H    0.62400010    0.13055014    0.36769027    0.12700000
opls_146-98    H    0.51990007    0.12246999    0.65438053    0.12460000
opls_146-99    H    0.48910989    0.05527998    0.60284071    0.12720000
opls_146-100    H    0.30574012    0.73500006    0.50669912    0.10530000
opls_146-101    H    0.42663019    0.74162014    0.61633923    0.10670000
opls_146-102    H    0.93674004    0.52977009    0.28889086    0.12580000
opls_146-103    H    0.86944998    0.49345991    0.36769027    0.12570000
opls_146-104    H    0.87753009    0.39742998    0.65438053    0.12700000
opls_146-105    H    0.94472010    0.43383008    0.60284071    0.12720000
opls_146-106    H    0.26500004    0.57074017    0.50669912    0.10790000
opls_146-107    H    0.25838007    0.68501002    0.61633923    0.10670000
opls_146-108    H    0.47023006    0.40696991    0.28889086    0.12590000
opls_146-109    H    0.50655001    0.37600016    0.36769027    0.12810000
opls_146-110    H    0.60258012    0.48010003    0.65438053    0.12460000
opls_146-111    H    0.56617000    0.51088994    0.60284071    0.12720000
opls_146-112    H    0.42925998    0.69426004    0.50669912    0.10670000
opls_146-113    H    0.31499012    0.57337011    0.61633923    0.10670000
opls_146-114    H    0.40697010    0.93674000    0.28889086    0.12580000
opls_146-115    H    0.37600003    0.86945014    0.36769027    0.12700000
opls_146-116    H    0.48009993    0.87753001    0.65438053    0.12700000
opls_146-117    H    0.51089011    0.94472002    0.60284071    0.12720000
opls_146-118    H    0.69425988    0.26499994    0.50669912    0.10530000
opls_146-119    H    0.57336995    0.25838013    0.61633923    0.10670000
opls_146-120    H    0.06325996    0.47022991    0.28889086    0.12580000
opls_146-121    H    0.13054997    0.50655002    0.36769027    0.12810000
opls_146-122    H    0.12246986    0.60257995    0.65438053    0.12470000
opls_146-123    H    0.05527990    0.56616992    0.60284071    0.12720000
opls_146-124    H    0.73500009    0.42926010    0.50669912    0.10790000
opls_146-125    H    0.74161993    0.31498998    0.61633923    0.10670000
opls_146-126    H    0.52976989    0.59304002    0.28889086    0.12580000
opls_146-127    H    0.49345013    0.62400012    0.36769027    0.12700000
opls_146-128    H    0.39742992    0.51989997    0.65438053    0.12670000
opls_146-129    H    0.43383000    0.48911006    0.60284071    0.12720000
opls_146-130    H    0.57074002    0.30573996    0.50669912    0.10670000
opls_146-131    H    0.68501002    0.42663017    0.61633923    0.10670000
MOF2_B_2-132    B    0.41911020    0.59401018    0.54217109    0.63070000
MOF2_B_2-133    B    0.40599003    0.82511002    0.54217109    0.63070000
MOF2_B_2-134    B    0.17489006    0.58089001    0.54217109    0.63080000
MOF2_B_2-135    B    0.58088994    0.40599010    0.54217109    0.63070000
MOF2_B_2-136    B    0.59400997    0.17488998    0.54217109    0.63080000
MOF2_B_2-137    B    0.82510994    0.41910999    0.54217109    0.63070000
