#======================================================================
# Crystal Data Generated By AuToFF
#----------------------------------------------------------------------

data_AuToFF_phase_1

_cell_length_a                         41.9500
_cell_length_b                         41.9500
_cell_length_c                         7.2300
_cell_angle_alpha                      90.00
_cell_angle_beta                       90.00
_cell_angle_gamma                      120.00
_symmetry_space_group_name_H-M_alt     'P 1'
_symmetry_space_group_IT_number        1

loop_
_space_group_symop_operation_xyz
   'x, y, z'

loop_
   _atom_site_label
   _atom_site_type_symbol
   _atom_site_fract_x
   _atom_site_fract_y
   _atom_site_fract_z
   _atom_site_charge
opls_145-0    C    0.68869009    0.32004001    0.19677040    -0.16540000
opls_523-1    C    0.70277002    0.35585995    0.19711065    0.02670000
opls_522-2    C    0.74058996    0.37954988    0.19750069    -0.00900000
opls_521-3    C    0.76372986    0.36725996    0.22424066    0.08400000
opls_521-4    C    0.81203995    0.42062006    0.19704979    0.09880000
opls_522-5    C    0.79150001    0.43567988    0.16973997    -0.23860000
opls_523-6    C    0.75597994    0.41525999    0.17095989    -0.23770000
opls_142-7    C    0.84944988    0.44227998    0.19730982    -0.00060000
opls_234-8    C    0.92732009    0.44731002    0.32959059    0.29160000
opls_145-9    C    0.96435005    0.47570987    0.32024066    -0.11570000
opls_166-10    C    0.97599987    0.51130987    0.32137068    0.16020000
opls_145-11    C    0.01114016    0.53488007    0.32204011    -0.25870000
opls_181-12    C    0.96187990    0.55708996    0.31746058    -0.21270000
opls_145-13    C    0.67996005    0.36865001    0.19677040    -0.16540000
opls_523-14    C    0.64414009    0.34690999    0.19711065    0.02670000
opls_522-15    C    0.62044991    0.36104000    0.19750069    -0.00900000
opls_521-16    C    0.63273983    0.39646989    0.22424066    0.08400000
opls_521-17    C    0.57938010    0.39142004    0.19704979    0.09880000
opls_522-18    C    0.56432003    0.35582003    0.16973997    -0.23860000
opls_523-19    C    0.58473999    0.34072002    0.17095989    -0.23770000
opls_142-20    C    0.55771989    0.40716993    0.19730982    -0.00060000
opls_234-21    C    0.55269006    0.48000992    0.32959059    0.29160000
opls_145-22    C    0.52428998    0.48864003    0.32024066    -0.11570000
opls_166-23    C    0.48868992    0.46468998    0.32137068    0.16020000
opls_145-24    C    0.46511990    0.47625983    0.32204011    -0.25870000
opls_181-25    C    0.44290993    0.40479007    0.31746058    -0.21270000
opls_145-26    C    0.63135010    0.31130998    0.19677040    -0.16540000
opls_523-27    C    0.65309012    0.29723007    0.19711065    0.02670000
opls_522-28    C    0.63895999    0.25940984    0.19750069    -0.00900000
opls_521-29    C    0.60352993    0.23626987    0.22424066    0.08400000
opls_521-30    C    0.60857995    0.18795990    0.19704979    0.09880000
opls_522-31    C    0.64417996    0.20850008    0.16973997    -0.23860000
opls_523-32    C    0.65928008    0.24401999    0.17095989    -0.23770000
opls_142-33    C    0.59282999    0.15055009    0.19730982    -0.00060000
opls_234-34    C    0.51999009    0.07268006    0.32959059    0.29160000
opls_145-35    C    0.51135997    0.03565010    0.32024066    -0.11570000
opls_166-36    C    0.53530983    0.02399988    0.32137068    0.16020000
opls_145-37    C    0.52373981    0.98885982    0.32204011    -0.25870000
opls_181-38    C    0.59520993    0.03811998    0.31746058    -0.21270000
opls_145-39    C    0.31130991    0.67995999    0.19677040    -0.16540000
opls_523-40    C    0.29722998    0.64414005    0.19711065    0.02670000
opls_522-41    C    0.25940990    0.62044984    0.19750069    -0.00900000
opls_521-42    C    0.23626990    0.63274004    0.22424066    0.08400000
opls_521-43    C    0.18796005    0.57937994    0.19704979    0.09880000
opls_522-44    C    0.20849985    0.56431984    0.16973997    -0.23860000
opls_523-45    C    0.24402006    0.58474001    0.17095989    -0.23770000
opls_142-46    C    0.15055012    0.55772002    0.19730982    -0.00060000
opls_234-47    C    0.07267991    0.55268998    0.32959059    0.29160000
opls_145-48    C    0.03564982    0.52428986    0.32024066    -0.11570000
opls_166-49    C    0.02399999    0.48868985    0.32137068    0.16020000
opls_145-50    C    0.98885984    0.46511993    0.32204011    -0.25870000
opls_181-51    C    0.03812010    0.44291004    0.31746058    -0.21270000
opls_145-52    C    0.32003995    0.63134999    0.19677040    -0.16540000
opls_523-53    C    0.35585991    0.65309001    0.19711065    0.02670000
opls_522-54    C    0.37955009    0.63896000    0.19750069    -0.00900000
opls_521-55    C    0.36726003    0.60352983    0.22424066    0.08400000
opls_521-56    C    0.42061990    0.60857996    0.19704979    0.09880000
opls_522-57    C    0.43567997    0.64417997    0.16973997    -0.23860000
opls_523-58    C    0.41526001    0.65927998    0.17095989    -0.23770000
opls_142-59    C    0.44227997    0.59282979    0.19730982    -0.00060000
opls_234-60    C    0.44730980    0.51998980    0.32959059    0.29160000
opls_145-61    C    0.47571002    0.51135997    0.32024066    -0.11570000
opls_166-62    C    0.51131008    0.53531002    0.32137068    0.16020000
opls_145-63    C    0.53487996    0.52373990    0.32204011    -0.25870000
opls_181-64    C    0.55709007    0.59520993    0.31746058    -0.21270000
opls_145-65    C    0.36864990    0.68869002    0.19677040    -0.16540000
opls_523-66    C    0.34690988    0.70276993    0.19711065    0.02670000
opls_522-67    C    0.36103987    0.74058988    0.19750069    -0.00900000
opls_521-68    C    0.39646993    0.76372986    0.22424066    0.08400000
opls_521-69    C    0.39141991    0.81203982    0.19704979    0.09880000
opls_522-70    C    0.35582004    0.79149992    0.16973997    -0.23860000
opls_523-71    C    0.34071992    0.75598001    0.17095989    -0.23770000
opls_142-72    C    0.40717001    0.84944991    0.19730982    -0.00060000
opls_234-73    C    0.48000991    0.92731994    0.32959059    0.29160000
opls_145-74    C    0.48864003    0.96434990    0.32024066    -0.11570000
opls_166-75    C    0.46469003    0.97599985    0.32137068    0.16020000
opls_145-76    C    0.47626006    0.01113990    0.32204011    -0.25870000
opls_181-77    C    0.40479007    0.96188002    0.31746058    -0.21270000
opls_145-78    C    0.67995988    0.31130998    0.69677040    -0.16540000
opls_523-79    C    0.64413994    0.29723007    0.69711065    0.02670000
opls_522-80    C    0.62044986    0.25940984    0.69750069    -0.00900000
opls_521-81    C    0.63273994    0.23626987    0.72424066    0.08400000
opls_521-82    C    0.57937995    0.18795990    0.69704979    0.09880000
opls_522-83    C    0.56432012    0.20850008    0.66973997    -0.23860000
opls_523-84    C    0.58473991    0.24401999    0.67095989    -0.23770000
opls_142-85    C    0.55772010    0.15055009    0.69730982    -0.00060000
opls_234-86    C    0.55268997    0.07268006    0.82959059    0.29160000
opls_145-87    C    0.52429013    0.03565010    0.82024066    -0.11570000
opls_166-88    C    0.48869005    0.02399988    0.82137068    0.16020000
opls_145-89    C    0.46512002    0.98885982    0.82204011    -0.25870000
opls_181-90    C    0.44291005    0.03811998    0.81746058    -0.21270000
opls_145-91    C    0.63134992    0.32004001    0.69677040    -0.16540000
opls_523-92    C    0.65308993    0.35585995    0.69711065    0.02670000
opls_522-93    C    0.63895992    0.37954988    0.69750069    -0.00900000
opls_521-94    C    0.60353010    0.36725996    0.72424066    0.08400000
opls_521-95    C    0.60858011    0.42062006    0.69704979    0.09880000
opls_522-96    C    0.64417987    0.43567988    0.66973997    -0.23860000
opls_523-97    C    0.65928006    0.41525999    0.67095989    -0.23770000
opls_142-98    C    0.59283010    0.44227998    0.69730982    -0.00060000
opls_234-99    C    0.51998993    0.44731002    0.82959059    0.29160000
opls_145-100    C    0.51135982    0.47570987    0.82024066    -0.11570000
opls_166-101    C    0.53531000    0.51130987    0.82137068    0.16020000
opls_145-102    C    0.52373992    0.53488007    0.82204011    -0.25870000
opls_181-103    C    0.59521006    0.55708996    0.81746058    -0.21270000
opls_145-104    C    0.68868996    0.36865001    0.69677040    -0.16540000
opls_523-105    C    0.70276989    0.34690999    0.69711065    0.02670000
opls_522-106    C    0.74059008    0.36104000    0.69750069    -0.00900000
opls_521-107    C    0.76373006    0.39646989    0.72424066    0.08400000
opls_521-108    C    0.81203994    0.39142004    0.69704979    0.09880000
opls_522-109    C    0.79150001    0.35582003    0.66973997    -0.23860000
opls_523-110    C    0.75598003    0.34072002    0.67095989    -0.23770000
opls_142-111    C    0.84945004    0.40716993    0.69730982    -0.00060000
opls_234-112    C    0.92731986    0.48000992    0.82959059    0.29160000
opls_145-113    C    0.96435005    0.48864003    0.82024066    -0.11570000
opls_166-114    C    0.97600005    0.46468998    0.82137068    0.16020000
opls_145-115    C    0.01113993    0.47625983    0.82204011    -0.25870000
opls_181-116    C    0.96188013    0.40479007    0.81746058    -0.21270000
opls_145-117    C    0.32004012    0.68869002    0.69677040    -0.16540000
opls_523-118    C    0.35586006    0.70276993    0.69711065    0.02670000
opls_522-119    C    0.37955001    0.74058988    0.69750069    -0.00900000
opls_521-120    C    0.36725992    0.76372986    0.72424066    0.08400000
opls_521-121    C    0.42061991    0.81203982    0.69704979    0.09880000
opls_522-122    C    0.43567988    0.79149992    0.66973997    -0.23860000
opls_523-123    C    0.41526009    0.75598001    0.67095989    -0.23770000
opls_142-124    C    0.44227990    0.84944991    0.69730982    -0.00060000
opls_234-125    C    0.44731003    0.92731994    0.82959059    0.29160000
opls_145-126    C    0.47570987    0.96434990    0.82024066    -0.11570000
opls_166-127    C    0.51130982    0.97599985    0.82137068    0.16020000
opls_145-128    C    0.53487984    0.01113990    0.82204011    -0.25870000
opls_181-129    C    0.55708995    0.96188002    0.81746058    -0.21270000
opls_145-130    C    0.36865008    0.67995999    0.69677040    -0.16540000
opls_523-131    C    0.34691007    0.64414005    0.69711065    0.02670000
opls_522-132    C    0.36103994    0.62044984    0.69750069    -0.00900000
opls_521-133    C    0.39647014    0.63274004    0.72424066    0.08400000
opls_521-134    C    0.39141989    0.57937994    0.69704979    0.09880000
opls_522-135    C    0.35581999    0.56431984    0.66973997    -0.23860000
opls_523-136    C    0.34071994    0.58474001    0.67095989    -0.23770000
opls_142-137    C    0.40716990    0.55772002    0.69730982    -0.00060000
opls_234-138    C    0.48001007    0.55268998    0.82959059    0.29160000
opls_145-139    C    0.48864004    0.52428986    0.82024066    -0.11570000
opls_166-140    C    0.46468986    0.48868985    0.82137068    0.16020000
opls_145-141    C    0.47625984    0.46511993    0.82204011    -0.25870000
opls_181-142    C    0.40478994    0.44291004    0.81746058    -0.21270000
opls_145-143    C    0.31131004    0.63134999    0.69677040    -0.16540000
opls_523-144    C    0.29723011    0.65309001    0.69711065    0.02670000
opls_522-145    C    0.25940992    0.63896000    0.69750069    -0.00900000
opls_521-146    C    0.23626980    0.60352983    0.72424066    0.08400000
opls_521-147    C    0.18796006    0.60857996    0.69704979    0.09880000
opls_522-148    C    0.20849999    0.64417997    0.66973997    -0.23860000
opls_523-149    C    0.24401997    0.65927998    0.67095989    -0.23770000
opls_142-150    C    0.15054982    0.59282979    0.69730982    -0.00060000
opls_234-151    C    0.07268000    0.51998980    0.82959059    0.29160000
opls_145-152    C    0.03564995    0.51135997    0.82024066    -0.11560000
opls_166-153    C    0.02399995    0.53531002    0.82137068    0.16020000
opls_145-154    C    0.98885994    0.52373990    0.82204011    -0.25870000
opls_181-155    C    0.03811987    0.59520993    0.81746058    -0.21270000
opls_520-156    N    0.79781993    0.38640982    0.22452006    -0.17960000
opls_750-157    N    0.86906997    0.43122982    0.26050069    -0.08920000
opls_238-158    N    0.90359009    0.45462000    0.25444952    -0.27050000
opls_520-159    N    0.61359009    0.41140998    0.22452006    -0.17960000
opls_750-160    N    0.56876997    0.43783982    0.26050069    -0.08920000
opls_238-161    N    0.54538002    0.44896981    0.25444952    -0.27050000
opls_520-162    N    0.58858984    0.20217992    0.22452006    -0.17960000
opls_750-163    N    0.56216016    0.13093009    0.26050069    -0.08920000
opls_238-164    N    0.55102999    0.09640991    0.25444952    -0.27040000
opls_520-165    N    0.20217993    0.61358990    0.22452006    -0.17960000
opls_750-166    N    0.13092989    0.56876991    0.26050069    -0.08920000
opls_238-167    N    0.09640991    0.54538000    0.25444952    -0.27050000
opls_520-168    N    0.38640991    0.58859002    0.22452006    -0.17960000
opls_750-169    N    0.43122989    0.56215990    0.26050069    -0.08910000
opls_238-170    N    0.45461984    0.55102991    0.25444952    -0.27050000
opls_520-171    N    0.41141002    0.79781980    0.22452006    -0.17960000
opls_750-172    N    0.43783984    0.86906991    0.26050069    -0.08920000
opls_238-173    N    0.44896988    0.90358981    0.25444952    -0.27050000
opls_520-174    N    0.61359008    0.20217992    0.72452006    -0.17960000
opls_750-175    N    0.56876993    0.13093009    0.76049931    -0.08920000
opls_238-176    N    0.54537993    0.09640991    0.75444952    -0.27050000
opls_520-177    N    0.58858989    0.38640982    0.72452006    -0.17960000
opls_750-178    N    0.56215984    0.43122982    0.76049931    -0.08920000
opls_238-179    N    0.55102990    0.45462000    0.75444952    -0.27050000
opls_520-180    N    0.79781989    0.41140998    0.72452006    -0.17960000
opls_750-181    N    0.86906985    0.43783982    0.76049931    -0.08920000
opls_238-182    N    0.90358979    0.44896981    0.75444952    -0.27050000
opls_520-183    N    0.38640978    0.79781980    0.72452006    -0.17960000
opls_750-184    N    0.43123007    0.86906991    0.76049931    -0.08920000
opls_238-185    N    0.45461994    0.90358981    0.75444952    -0.27050000
opls_520-186    N    0.41140997    0.61358990    0.72452006    -0.17960000
opls_750-187    N    0.43784002    0.56876991    0.76049931    -0.08920000
opls_238-188    N    0.44897010    0.54538000    0.75444952    -0.27050000
opls_520-189    N    0.20218011    0.58859002    0.72452006    -0.17960000
opls_750-190    N    0.13093001    0.56215990    0.76049931    -0.08920000
opls_238-191    N    0.09641007    0.55102991    0.75444952    -0.27050000
opls_236-192    O    0.91953983    0.41921983    0.40096957    -0.43700000
opls_179-193    O    0.95117001    0.52095981    0.32813001    -0.18610000
opls_236-194    O    0.58078002    0.50031999    0.40096957    -0.43700000
opls_179-195    O    0.47903992    0.43020999    0.32813001    -0.18610000
opls_236-196    O    0.49968001    0.08045991    0.40096957    -0.43700000
opls_179-197    O    0.56978993    0.04882993    0.32813001    -0.18610000
opls_236-198    O    0.08046003    0.58077989    0.40096957    -0.43690000
opls_179-199    O    0.04882985    0.47903992    0.32813001    -0.18600000
opls_236-200    O    0.41921998    0.49968001    0.40096957    -0.43700000
opls_179-201    O    0.52096008    0.56979001    0.32813001    -0.18610000
opls_236-202    O    0.50031985    0.91953982    0.40096957    -0.43700000
opls_179-203    O    0.43020993    0.95116980    0.32813001    -0.18610000
opls_236-204    O    0.58077990    0.08045991    0.90096957    -0.43700000
opls_179-205    O    0.47903999    0.04882993    0.82813001    -0.18610000
opls_236-206    O    0.49968000    0.41921983    0.90096957    -0.43700000
opls_179-207    O    0.56978980    0.52095981    0.82813001    -0.18610000
opls_236-208    O    0.91953997    0.50031999    0.90096957    -0.43700000
opls_179-209    O    0.95117007    0.43020999    0.82813001    -0.18600000
opls_236-210    O    0.41921997    0.91953982    0.90096957    -0.43700000
opls_179-211    O    0.52095987    0.95116980    0.82813001    -0.18610000
opls_236-212    O    0.50031986    0.58077989    0.90096957    -0.43700000
opls_179-213    O    0.43021007    0.47903992    0.82813001    -0.18610000
opls_236-214    O    0.08046003    0.49968001    0.90096957    -0.43700000
opls_179-215    O    0.04882993    0.56979001    0.82813001    -0.18610000
opls_524-216    H    0.75408001    0.34020006    0.24886030    0.10030000
opls_525-217    H    0.80347986    0.46303982    0.14617981    0.20410000
opls_526-218    H    0.74056996    0.42717997    0.14748963    0.20400000
opls_144-219    H    0.85990999    0.46829006    0.14344952    0.09920000
opls_910-220    H    0.91170981    0.47840986    0.20086999    0.22500000
opls_146-221    H    0.02073001    0.56215990    0.32662932    0.20330000
opls_185-222    H    0.97579010    0.56824004    0.18918949    0.16590000
opls_185-223    H    0.97782986    0.57095985    0.43599032    0.16660000
opls_185-224    H    0.93824001    0.55802996    0.31983956    0.16770000
opls_146-225    H    0.70570013    0.30966009    0.19562932    0.20340000
opls_524-226    H    0.65980000    0.41387986    0.24886030    0.10030000
opls_525-227    H    0.53695997    0.34044009    0.14617981    0.20410000
opls_526-228    H    0.57281996    0.31339009    0.14748963    0.20390000
opls_144-229    H    0.53170982    0.39161988    0.14344952    0.09920000
opls_910-230    H    0.52158994    0.43330002    0.20086999    0.22500000
opls_146-231    H    0.43783991    0.45856993    0.32662932    0.20330000
opls_185-232    H    0.43176001    0.40755006    0.18918949    0.16590000
opls_185-233    H    0.42903996    0.40686990    0.43599032    0.16660000
opls_185-234    H    0.44197005    0.38020995    0.31983956    0.16770000
opls_146-235    H    0.69033988    0.39603994    0.19562932    0.20340000
opls_524-236    H    0.58611999    0.24592008    0.24886030    0.10030000
opls_525-237    H    0.65955993    0.19652010    0.14617981    0.20410000
opls_526-238    H    0.68661008    0.25942994    0.14748963    0.20390000
opls_144-239    H    0.60837996    0.14009007    0.14344952    0.09920000
opls_910-240    H    0.56670001    0.08829013    0.20086999    0.22500000
opls_146-241    H    0.54142994    0.97926989    0.32662932    0.20340000
opls_185-242    H    0.59244988    0.02420990    0.18918949    0.16590000
opls_185-243    H    0.59313004    0.02216997    0.43599032    0.16660000
opls_185-244    H    0.61978994    0.06176009    0.31983956    0.16770000
opls_146-245    H    0.60395999    0.29429996    0.19562932    0.20340000
opls_524-246    H    0.24591999    0.65979994    0.24886030    0.10030000
opls_525-247    H    0.19652000    0.53695991    0.14617981    0.20410000
opls_526-248    H    0.25943004    0.57282003    0.14748963    0.20390000
opls_144-249    H    0.14009001    0.53170994    0.14344952    0.09920000
opls_910-250    H    0.08829005    0.52158987    0.20086999    0.22500000
opls_146-251    H    0.97926985    0.43783982    0.32662932    0.20330000
opls_185-252    H    0.02420990    0.43175996    0.18918949    0.16590000
opls_185-253    H    0.02217000    0.42903988    0.43599032    0.16660000
opls_185-254    H    0.06175999    0.44197004    0.31983956    0.16770000
opls_146-255    H    0.29429987    0.69033991    0.19562932    0.20340000
opls_524-256    H    0.34019986    0.58611987    0.24886030    0.10030000
opls_525-257    H    0.46304003    0.65955991    0.14617981    0.20410000
opls_526-258    H    0.42718004    0.68660991    0.14748963    0.20390000
opls_144-259    H    0.46828981    0.60837985    0.14344952    0.09920000
opls_910-260    H    0.47841006    0.56669998    0.20086999    0.22500000
opls_146-261    H    0.56216009    0.54143007    0.32662932    0.20330000
opls_185-262    H    0.56823999    0.59244994    0.18918949    0.16590000
opls_185-263    H    0.57095990    0.59312982    0.43599032    0.16660000
opls_185-264    H    0.55802995    0.61979005    0.31983956    0.16770000
opls_146-265    H    0.30966012    0.60396006    0.19562932    0.20340000
opls_524-266    H    0.41388001    0.75407992    0.24886030    0.10030000
opls_525-267    H    0.34044007    0.80347990    0.14617981    0.20410000
opls_526-268    H    0.31338978    0.74056979    0.14748963    0.20400000
opls_144-269    H    0.39162004    0.85990993    0.14344952    0.09920000
opls_910-270    H    0.43329999    0.91170987    0.20086999    0.22500000
opls_146-271    H    0.45857006    0.02073011    0.32662932    0.20330000
opls_185-272    H    0.40754998    0.97578983    0.18918949    0.16590000
opls_185-273    H    0.40686982    0.97782975    0.43599032    0.16660000
opls_185-274    H    0.38021006    0.93823991    0.31983956    0.16770000
opls_146-275    H    0.39604001    0.70570004    0.19562932    0.20340000
opls_524-276    H    0.65980009    0.24592008    0.74886030    0.10030000
opls_525-277    H    0.53696017    0.19652010    0.64617981    0.20410000
opls_526-278    H    0.57281986    0.25942994    0.64748963    0.20390000
opls_144-279    H    0.53171011    0.14009007    0.64344952    0.09920000
opls_910-280    H    0.52159012    0.08829013    0.70086999    0.22500000
opls_146-281    H    0.43783995    0.97926989    0.82662932    0.20330000
opls_185-282    H    0.43176001    0.02420990    0.68918949    0.16590000
opls_185-283    H    0.42903993    0.02216997    0.93599032    0.16660000
opls_185-284    H    0.44197015    0.06176009    0.81983956    0.16770000
opls_146-285    H    0.69033997    0.29429996    0.69562932    0.20340000
opls_524-286    H    0.58612005    0.34020006    0.74886030    0.10030000
opls_525-287    H    0.65955996    0.46303982    0.64617981    0.20410000
opls_526-288    H    0.68661001    0.42717997    0.64748963    0.20390000
opls_144-289    H    0.60838007    0.46829006    0.64344952    0.09920000
opls_910-290    H    0.56670004    0.47840986    0.70086999    0.22500000
opls_146-291    H    0.54142989    0.56215990    0.82662932    0.20330000
opls_185-292    H    0.59244994    0.56824004    0.68918949    0.16590000
opls_185-293    H    0.59312998    0.57095985    0.93599032    0.16660000
opls_185-294    H    0.61978995    0.55802996    0.81983956    0.16770000
opls_146-295    H    0.60395996    0.30966009    0.69562932    0.20340000
opls_524-296    H    0.75407986    0.41387986    0.74886030    0.10030000
opls_525-297    H    0.80348011    0.34044009    0.64617981    0.20410000
opls_526-298    H    0.74057014    0.31339009    0.64748963    0.20390000
opls_144-299    H    0.85991006    0.39161988    0.64344952    0.09920000
opls_910-300    H    0.91171008    0.43330002    0.70086999    0.22510000
opls_146-301    H    0.02073002    0.45856993    0.82662932    0.20330000
opls_185-302    H    0.97579005    0.40755006    0.68918949    0.16590000
opls_185-303    H    0.97782995    0.40686990    0.93599032    0.16660000
opls_185-304    H    0.93823990    0.38020995    0.81983956    0.16770000
opls_146-305    H    0.70570007    0.39603994    0.69562932    0.20340000
opls_524-306    H    0.34019991    0.75407992    0.74886030    0.10030000
opls_525-307    H    0.46303983    0.80347990    0.64617981    0.20410000
opls_526-308    H    0.42718001    0.74056979    0.64748963    0.20400000
opls_144-309    H    0.46828989    0.85990993    0.64344952    0.09920000
opls_910-310    H    0.47840988    0.91170987    0.70086999    0.22500000
opls_146-311    H    0.56216005    0.02073011    0.82662932    0.20330000
opls_185-312    H    0.56823985    0.97578983    0.68918949    0.16590000
opls_185-313    H    0.57095993    0.97782975    0.93599032    0.16660000
opls_185-314    H    0.55802985    0.93823991    0.81983956    0.16770000
opls_146-315    H    0.30966003    0.70570004    0.69562932    0.20340000
opls_524-316    H    0.41387995    0.65979994    0.74886030    0.10030000
opls_525-317    H    0.34043991    0.53695991    0.64617981    0.20410000
opls_526-318    H    0.31338999    0.57282003    0.64748963    0.20390000
opls_144-319    H    0.39161993    0.53170994    0.64344952    0.09920000
opls_910-320    H    0.43329982    0.52158987    0.70086999    0.22500000
opls_146-321    H    0.45856997    0.43783982    0.82662932    0.20330000
opls_185-322    H    0.40755006    0.43175996    0.68918949    0.16590000
opls_185-323    H    0.40686988    0.42903988    0.93599032    0.16660000
opls_185-324    H    0.38021005    0.44197004    0.81983956    0.16780000
opls_146-325    H    0.39604004    0.69033991    0.69562932    0.20340000
opls_524-326    H    0.24592001    0.58611987    0.74886030    0.10030000
opls_525-327    H    0.19651989    0.65955991    0.64617981    0.20410000
opls_526-328    H    0.25942986    0.68660991    0.64748963    0.20390000
opls_144-329    H    0.14009004    0.60837985    0.64344952    0.09920000
opls_910-330    H    0.08828992    0.56669998    0.70086999    0.22500000
opls_146-331    H    0.97926998    0.54143007    0.82662932    0.20330000
opls_185-332    H    0.02420995    0.59244994    0.68918949    0.16590000
opls_185-333    H    0.02216992    0.59312982    0.93599032    0.16660000
opls_185-334    H    0.06176010    0.61979005    0.81983956    0.16770000
opls_146-335    H    0.29429993    0.60396006    0.69562932    0.20340000
