#======================================================================
# Crystal Data Generated By AuToFF
#----------------------------------------------------------------------

data_AuToFF_phase_1

_cell_length_a                         36.1500
_cell_length_b                         31.3000
_cell_length_c                         3.6000
_cell_angle_alpha                      90.00
_cell_angle_beta                       90.00
_cell_angle_gamma                      90.00
_symmetry_space_group_name_H-M_alt     'P 1'
_symmetry_space_group_IT_number        1

loop_
_space_group_symop_operation_xyz
   'x, y, z'

loop_
   _atom_site_label
   _atom_site_type_symbol
   _atom_site_fract_x
   _atom_site_fract_y
   _atom_site_fract_z
   _atom_site_charge
opls_700-0    C    0.96615989    0.45347987    0.12818056    0.00440000
opls_700-1    C    0.03384011    0.54652013    0.12818056    0.00600000
opls_700-2    C    0.96615989    0.54652013    0.12818056    0.00600000
opls_700-3    C    0.03384011    0.45347987    0.12818056    0.00440000
opls_700-4    C    0.46595989    0.95392013    0.88138056    0.00410000
opls_700-5    C    0.53404011    0.04607987    0.88138056    0.00410000
opls_700-6    C    0.46595989    0.04607987    0.88138056    0.00410000
opls_700-7    C    0.53404011    0.95392013    0.88138056    0.00410000
opls_145-8    C    0.93446999    0.52220000    0.04326111    -0.22250000
opls_145-9    C    0.06553001    0.47780990    0.04326111    -0.22250000
opls_145-10    C    0.93446999    0.47780990    0.04326111    -0.22250000
opls_145-11    C    0.06553001    0.52220000    0.04326111    -0.22240000
opls_145-12    C    0.43418008    0.02226997    0.78748889    -0.22200000
opls_145-13    C    0.56581992    0.97773003    0.78748889    -0.22200000
opls_145-14    C    0.43418008    0.97773003    0.78748889    -0.22200000
opls_145-15    C    0.56581992    0.02226997    0.78748889    -0.22200000
opls_700-16    C    0.96527994    0.59199010    0.17801111    0.02840000
opls_700-17    C    0.03472006    0.40800990    0.17801111    0.02840000
opls_700-18    C    0.96527994    0.40800990    0.17801111    0.02840000
opls_700-19    C    0.03472006    0.59199010    0.17801111    0.02840000
opls_700-20    C    0.46537012    0.09133003    0.93073056    0.01480000
opls_700-21    C    0.53462988    0.90866997    0.93073056    0.01480000
opls_700-22    C    0.46537012    0.90866997    0.93073056    0.01480000
opls_700-23    C    0.53462988    0.09133003    0.93073056    0.01480000
opls_700-24    C    0.93266003    0.61800990    0.20798056    0.05800000
opls_700-25    C    0.06733997    0.38199010    0.20798056    0.05800000
opls_700-26    C    0.93266003    0.38199010    0.20798056    0.05800000
opls_700-27    C    0.06733997    0.61800990    0.20798056    0.05800000
opls_700-28    C    0.43358008    0.11862013    0.91853056    0.05840000
opls_700-29    C    0.56641992    0.88137987    0.91853056    0.05840000
opls_700-30    C    0.43358008    0.88137987    0.91853056    0.05840000
opls_700-31    C    0.56641992    0.11862013    0.91853056    0.05840000
opls_145-32    C    0.89944011    0.60203994    0.36295000    -0.22220000
opls_145-33    C    0.10055989    0.39796997    0.36295000    -0.22230000
opls_145-34    C    0.89944011    0.39796997    0.36295000    -0.22220000
opls_145-35    C    0.10055989    0.60203994    0.36295000    -0.22230000
opls_145-36    C    0.39795989    0.10670990    0.04783056    -0.19730000
opls_145-37    C    0.60204011    0.89329010    0.04783056    -0.19730000
opls_145-38    C    0.39795989    0.89329010    0.04783056    -0.19730000
opls_145-39    C    0.60204011    0.10670990    0.04783056    -0.19730000
opls_145-40    C    0.86660996    0.62556006    0.37590000    -0.23080000
opls_145-41    C    0.13339004    0.37443994    0.37590000    -0.23080000
opls_145-42    C    0.86660996    0.37443994    0.37590000    -0.23080000
opls_145-43    C    0.13339004    0.62556006    0.37590000    -0.23080000
opls_145-44    C    0.36678008    0.13306997    0.99726111    -0.23020000
opls_145-45    C    0.63321992    0.86693003    0.99726111    -0.23020000
opls_145-46    C    0.36678008    0.86693003    0.99726111    -0.23020000
opls_145-47    C    0.63321992    0.13306997    0.99726111    -0.23020000
opls_145-48    C    0.86566999    0.66810000    0.25043056    0.18220000
opls_145-49    C    0.13433001    0.33190000    0.25043056    0.18220000
opls_145-50    C    0.86566999    0.33190000    0.25043056    0.18220000
opls_145-51    C    0.13433001    0.66810000    0.25043056    0.18220000
opls_145-52    C    0.37034993    0.17346997    0.83111944    0.18230000
opls_145-53    C    0.62965007    0.82653994    0.83111944    0.18230000
opls_145-54    C    0.37034993    0.82653994    0.83111944    0.18230000
opls_145-55    C    0.62965007    0.17346997    0.83111944    0.18230000
opls_145-56    C    0.89877012    0.68646006    0.12215000    -0.22920000
opls_145-57    C    0.10122988    0.31353994    0.12215000    -0.22920000
opls_145-58    C    0.89877012    0.31353994    0.12215000    -0.22920000
opls_145-59    C    0.10122988    0.68646006    0.12215000    -0.22920000
opls_145-60    C    0.40587994    0.18747987    0.72680000    -0.23080000
opls_145-61    C    0.59412006    0.81253003    0.72680000    -0.23080000
opls_145-62    C    0.40587994    0.81253003    0.72680000    -0.23080000
opls_145-63    C    0.59412006    0.18747987    0.72680000    -0.23080000
opls_145-64    C    0.93131010    0.66166006    0.09423889    -0.15530000
opls_145-65    C    0.06868990    0.33833994    0.09423889    -0.15530000
opls_145-66    C    0.93131010    0.33833994    0.09423889    -0.15530000
opls_145-67    C    0.06868990    0.66166006    0.09423889    -0.15530000
opls_145-68    C    0.43653001    0.16040990    0.76550000    -0.19730000
opls_145-69    C    0.56346999    0.83959010    0.76550000    -0.19730000
opls_145-70    C    0.43653001    0.83959010    0.76550000    -0.19730000
opls_145-71    C    0.56346999    0.16040990    0.76550000    -0.19730000
opls_142-72    C    0.33401992    0.23512013    0.62318889    0.09370000
opls_142-73    C    0.66598008    0.76487987    0.62318889    0.09370000
opls_142-74    C    0.33401992    0.76487987    0.62318889    0.09370000
opls_142-75    C    0.66598008    0.23512013    0.62318889    0.09370000
opls_145-76    C    0.00000000    0.61242013    0.21378056    -0.10270000
opls_145-77    C    0.00000000    0.38757987    0.21378056    -0.10270000
opls_145-78    C    0.50000000    0.11103994    0.99013056    -0.10280000
opls_145-79    C    0.50000000    0.88896006    0.99013056    -0.10280000
opls_700-80    C    0.00000000    0.47690000    0.13716944    0.00050000
opls_700-81    C    0.00000000    0.52310000    0.13716944    0.00050000
opls_700-82    C    0.50000000    0.97706006    0.89488056    -0.00130000
opls_700-83    C    0.50000000    0.02293994    0.89488056    -0.00130000
opls_142-84    C    0.20088990    0.32244984    0.28348056    0.09560000
opls_142-85    C    0.79911010    0.67755016    0.28348056    0.09560000
opls_142-86    C    0.20088990    0.67755016    0.28348056    0.09560000
opls_142-87    C    0.79911010    0.32244984    0.28348056    0.09560000
opls_700-88    C    0.70077012    0.74653003    0.54458889    -0.03100000
opls_700-89    C    0.29922988    0.25346997    0.54458889    -0.03100000
opls_700-90    C    0.70077012    0.25346997    0.54458889    -0.03100000
opls_700-91    C    0.29922988    0.74653003    0.54458889    -0.03100000
opls_145-92    C    0.70033997    0.70397987    0.41240000    -0.22240000
opls_145-93    C    0.29966003    0.29602013    0.41240000    -0.22240000
opls_145-94    C    0.70033997    0.29602013    0.41240000    -0.22240000
opls_145-95    C    0.29966003    0.70397987    0.41240000    -0.22240000
opls_145-96    C    0.73313997    0.68254984    0.32796111    -0.22240000
opls_145-97    C    0.26686999    0.31745016    0.32796111    -0.22240000
opls_145-98    C    0.73313997    0.31745016    0.32796111    -0.22230000
opls_145-99    C    0.26686999    0.68254984    0.32796111    -0.22240000
opls_700-100    C    0.76787994    0.70282013    0.36623056    -0.02920000
opls_700-101    C    0.23212006    0.29717987    0.36623056    -0.02740000
opls_700-102    C    0.76787994    0.29717987    0.36623056    -0.02920000
opls_700-103    C    0.23212006    0.70282013    0.36623056    -0.02740000
opls_166-104    C    0.76898008    0.74587987    0.49415000    0.11550000
opls_166-105    C    0.23101992    0.25412013    0.49415000    0.11550000
opls_166-106    C    0.76898008    0.25412013    0.49415000    0.11550000
opls_166-107    C    0.23101992    0.74587987    0.49415000    0.11550000
opls_166-108    C    0.73552006    0.76747987    0.58770000    0.11580000
opls_166-109    C    0.26447994    0.23252013    0.58770000    0.11520000
opls_166-110    C    0.73552006    0.23252013    0.58770000    0.11520000
opls_166-111    C    0.26447994    0.76747987    0.58770000    0.11580000
opls_750-112    N    0.83435989    0.69182013    0.25638056    -0.33830000
opls_750-113    N    0.16564011    0.30819010    0.25638056    -0.33770000
opls_750-114    N    0.83435989    0.30819010    0.25638056    -0.33780000
opls_750-115    N    0.16564011    0.69182013    0.25638056    -0.33840000
opls_750-116    N    0.33893997    0.19585016    0.77076944    -0.34660000
opls_750-117    N    0.66106999    0.80415016    0.77076944    -0.34930000
opls_750-118    N    0.33893997    0.80415016    0.77076944    -0.35160000
opls_750-119    N    0.66106999    0.19585016    0.77076944    -0.35160000
opls_146-120    H    0.91011010    0.53603003    0.97586944    0.20510000
opls_146-121    H    0.08988990    0.46397987    0.97586944    0.20510000
opls_146-122    H    0.91011010    0.46397987    0.97586944    0.20510000
opls_146-123    H    0.08988990    0.53603003    0.97586944    0.20510000
opls_146-124    H    0.41024011    0.03667987    0.70938889    0.20530000
opls_146-125    H    0.58975989    0.96332013    0.70938889    0.20540000
opls_146-126    H    0.41024011    0.96332013    0.70938889    0.20530000
opls_146-127    H    0.58975989    0.03667987    0.70938889    0.20530000
opls_146-128    H    0.89851010    0.57273994    0.47951111    0.20590000
opls_146-129    H    0.10148990    0.42726006    0.47951111    0.20570000
opls_146-130    H    0.89851010    0.42726006    0.47951111    0.20570000
opls_146-131    H    0.10148990    0.57273994    0.47951111    0.20570000
opls_146-132    H    0.39420000    0.07873003    0.18708056    0.20520000
opls_146-133    H    0.60580000    0.92126997    0.18708056    0.20510000
opls_146-134    H    0.39420000    0.92126997    0.18708056    0.20510000
opls_146-135    H    0.60580000    0.07873003    0.18708056    0.20510000
opls_146-136    H    0.84372006    0.61174984    0.48993889    0.20510000
opls_146-137    H    0.15627994    0.38824984    0.48993889    0.20520000
opls_146-138    H    0.84372006    0.38824984    0.48993889    0.20530000
opls_146-139    H    0.15627994    0.61174984    0.48993889    0.20510000
opls_146-140    H    0.34127994    0.12300000    0.08445000    0.20500000
opls_146-141    H    0.65872006    0.87700000    0.08445000    0.20500000
opls_146-142    H    0.34127994    0.87700000    0.08445000    0.20500000
opls_146-143    H    0.65872006    0.12300000    0.08445000    0.20500000
opls_146-144    H    0.89875989    0.71770990    0.03828056    0.20500000
opls_146-145    H    0.10124011    0.28229010    0.03828056    0.20510000
opls_146-146    H    0.89875989    0.28229010    0.03828056    0.20500000
opls_146-147    H    0.10124011    0.71770990    0.03828056    0.20500000
opls_146-148    H    0.40981992    0.21676997    0.61051111    0.20520000
opls_146-149    H    0.59018008    0.78323003    0.61051111    0.20510000
opls_146-150    H    0.40981992    0.78323003    0.61051111    0.20510000
opls_146-151    H    0.59018008    0.21676997    0.61051111    0.20520000
opls_146-152    H    0.95386003    0.67602013    0.97758056    0.20500000
opls_146-153    H    0.04613997    0.32397987    0.97758056    0.20500000
opls_146-154    H    0.95386003    0.32397987    0.97758056    0.20500000
opls_146-155    H    0.04613997    0.67602013    0.97758056    0.20500000
opls_146-156    H    0.46106999    0.17156997    0.66378056    0.20500000
opls_146-157    H    0.53893001    0.82843003    0.66378056    0.20510000
opls_146-158    H    0.46106999    0.82843003    0.66378056    0.20500000
opls_146-159    H    0.53893001    0.17156997    0.66378056    0.20500000
opls_146-160    H    0.00000000    0.64386997    0.28743889    0.20520000
opls_146-161    H    0.00000000    0.35613003    0.28743889    0.20520000
opls_146-162    H    0.50000000    0.14183003    0.08448056    0.20500000
opls_146-163    H    0.50000000    0.85816997    0.08448056    0.20500000
opls_146-164    H    0.67595989    0.68773003    0.37623889    0.20510000
opls_146-165    H    0.32404011    0.31226997    0.37623889    0.20510000
opls_146-166    H    0.67595989    0.31226997    0.37623889    0.20510000
opls_146-167    H    0.32404011    0.68773003    0.37623889    0.20510000
opls_144-168    H    0.35706003    0.74730990    0.56251111    0.10010000
opls_144-169    H    0.20526003    0.35427987    0.23496944    0.10010000
opls_146-170    H    0.26887994    0.34836006    0.23531944    0.20510000
opls_168-171    H    0.17548990    0.24879010    0.46785000    0.29920000
opls_168-172    H    0.28567994    0.17745016    0.79070000    0.29130000
opls_144-173    H    0.64293997    0.25269010    0.56251111    0.10000000
opls_144-174    H    0.79473997    0.64572013    0.23496944    0.10000000
opls_146-175    H    0.73112006    0.65163994    0.23531944    0.20510000
opls_168-176    H    0.82451010    0.75120990    0.46785000    0.29910000
opls_168-177    H    0.71432006    0.82255016    0.79070000    0.29310000
opls_144-178    H    0.35706003    0.25269010    0.56251111    0.10010000
opls_144-179    H    0.20526003    0.64572013    0.23496944    0.10000000
opls_146-180    H    0.26887994    0.65163994    0.23531944    0.20510000
opls_168-181    H    0.17548990    0.75120990    0.46785000    0.29910000
opls_168-182    H    0.28567994    0.82255016    0.79070000    0.29310000
opls_144-183    H    0.64293997    0.74730990    0.56251111    0.10000000
opls_144-184    H    0.79473997    0.35427987    0.23496944    0.10000000
opls_146-185    H    0.73112006    0.34836006    0.23531944    0.20520000
opls_168-186    H    0.82451010    0.24879010    0.46785000    0.29910000
opls_168-187    H    0.71432006    0.17745016    0.79070000    0.29120000
opls_167-188    O    0.80204011    0.76600000    0.54131111    -0.48970000
opls_167-189    O    0.19795989    0.23400000    0.54131111    -0.48980000
opls_167-190    O    0.80204011    0.23400000    0.54131111    -0.48970000
opls_167-191    O    0.19795989    0.76600000    0.54131111    -0.48980000
opls_167-192    O    0.73718008    0.80794984    0.72590000    -0.48970000
opls_167-193    O    0.26281992    0.19206006    0.72590000    -0.48960000
opls_167-194    O    0.73718008    0.19206006    0.72590000    -0.48960000
opls_167-195    O    0.26281992    0.80794984    0.72590000    -0.48970000
