#======================================================================
# Crystal Data Generated By AuToFF
#----------------------------------------------------------------------

data_AuToFF_phase_1

_cell_length_a                         22.6260
_cell_length_b                         20.1920
_cell_length_c                         4.8900
_cell_angle_alpha                      90.00
_cell_angle_beta                       90.00
_cell_angle_gamma                      90.50
_symmetry_space_group_name_H-M_alt     'P 1'
_symmetry_space_group_IT_number        1

loop_
_space_group_symop_operation_xyz
   'x, y, z'

loop_
   _atom_site_label
   _atom_site_type_symbol
   _atom_site_fract_x
   _atom_site_fract_y
   _atom_site_fract_z
   _atom_site_charge
opls_146-0    H    0.48358016    0.60231992    0.47889980    0.10680000
opls_146-1    H    0.55269008    0.51266020    0.40778937    0.07880000
opls_146-2    H    0.65159017    0.57464998    0.12295092    0.10980000
opls_146-3    H    0.58001018    0.66193986    0.20695092    0.09320000
opls_146-4    H    0.36582999    0.65501012    0.46620041    0.08520000
opls_146-5    H    0.31697997    0.55489983    0.62166053    0.08600000
opls_146-6    H    0.39182021    0.44664986    0.94279959    0.06740000
opls_146-7    H    0.43035019    0.54698005    0.75564008    0.11380000
opls_146-8    H    0.55996020    0.72384991    0.52069939    0.08260000
opls_146-9    H    0.61302036    0.82712990    0.46688957    0.11220000
opls_146-10    H    0.51743021    0.90979995    0.15378937    0.07130000
opls_146-11    H    0.46579023    0.80472017    0.21947035    0.09220000
opls_146-12    H    0.42074022    0.79478021    0.65316973    0.08630000
opls_146-13    H    0.35744012    0.88928015    0.70346012    0.11490000
opls_146-14    H    0.24231027    0.77703983    0.23916973    0.11490000
opls_146-15    H    0.30247033    0.68306983    0.19452965    0.10140000
opls_144-16    H    0.60307019    0.94283013    0.34628016    0.07550000
opls_144-17    H    0.57424992    0.41586025    0.71644990    0.06780000
opls_144-18    H    0.27282995    0.45639022    0.72568916    0.06970000
opls_144-19    H    0.33871024    0.94232991    0.24553988    0.06750000
opls_146-20    H    0.07085000    0.25379979    0.63465031    0.08280000
opls_146-21    H    0.97626015    0.26236985    0.41725971    0.07740000
opls_146-22    H    0.03191984    0.11928000    0.80253988    0.08770000
opls_146-23    H    0.12701021    0.11453983    0.01298978    0.11100000
opls_146-24    H    0.89937017    0.27098002    0.22556033    0.08770000
opls_146-25    H    0.80172002    0.27040007    0.02840082    0.07610000
opls_146-26    H    0.85245006    0.11562990    0.46425971    0.10590000
opls_146-27    H    0.95027019    0.11352008    0.66265031    0.09390000
opls_146-28    H    0.11582004    0.04934023    0.41191002    0.08280000
opls_146-29    H    0.17017030    0.95336985    0.25998978    0.06690000
opls_146-30    H    0.33505979    0.05653989    0.41823926    0.07000000
opls_146-31    H    0.28119007    0.15348991    0.56204090    0.08100000
opls_146-32    H    0.68487018    0.16305990    0.21289980    0.07610000
opls_146-33    H    0.62207980    0.06365982    0.18746012    0.10980000
opls_146-34    H    0.70944990    0.98463987    0.90373006    0.07130000
opls_146-35    H    0.77296989    0.08261012    0.92482004    0.11280000
opls_146-36    H    0.80042021    0.31830007    0.52194070    0.09540000
opls_146-37    H    0.74187001    0.41922013    0.56378937    0.06960000
opls_146-38    H    0.58655006    0.30073007    0.74982004    0.07130000
opls_146-39    H    0.64451989    0.20087979    0.72112065    0.14700000
opls_146-40    H    0.24770983    0.21770987    0.15994070    0.07810000
opls_146-41    H    0.30208024    0.32091012    0.19551943    0.07740000
opls_146-42    H    0.20128992    0.37259989    0.91822086    0.07130000
opls_146-43    H    0.14882005    0.26622994    0.88980982    0.11110000
opls_700-44    C    0.42061022    0.67797999    0.97242945    -0.00880000
opls_700-45    C    0.47921004    0.68910017    0.90707975    -0.02840000
opls_700-46    C    0.40028029    0.61177997    0.08861963    0.06670000
opls_700-47    C    0.52239028    0.63420010    0.86635992    0.07410000
opls_700-48    C    0.37425015    0.73267008    0.95611043    0.06840000
opls_700-49    C    0.50714009    0.75621000    0.86857055    0.07440000
opls_145-50    C    0.51847997    0.59495979    0.63084049    -0.10120000
opls_145-51    C    0.55878005    0.54530011    0.58566053    -0.15710000
opls_145-52    C    0.60667001    0.53604015    0.76335992    0.23280000
opls_145-53    C    0.61377016    0.57983986    0.98368098    -0.15470000
opls_145-54    C    0.57238031    0.62838024    0.03447035    -0.10920000
opls_145-55    C    0.37103020    0.60994996    0.34240900    -0.12040000
opls_145-56    C    0.34371018    0.55256020    0.43467076    -0.15640000
opls_145-57    C    0.35060027    0.49249006    0.29492025    0.23950000
opls_145-58    C    0.38547017    0.49281000    0.05834969    -0.15610000
opls_145-59    C    0.40846987    0.55110016    0.95339059    -0.11010000
opls_145-60    C    0.54920998    0.76440019    0.66030061    -0.11230000
opls_145-61    C    0.57941013    0.82346989    0.62869939    -0.15590000
opls_145-62    C    0.56884021    0.87706990    0.80384049    0.21810000
opls_145-63    C    0.52661998    0.86887030    0.01222904    -0.16410000
opls_145-64    C    0.49679027    0.80929988    0.04765031    -0.12090000
opls_145-65    C    0.38307006    0.78952991    0.79288957    -0.12150000
opls_145-66    C    0.34610002    0.84359001    0.81455010    -0.15930000
opls_145-67    C    0.29703008    0.84168027    0.99000000    0.23050000
opls_145-68    C    0.28204034    0.78114013    0.11074029    -0.15290000
opls_145-69    C    0.31902028    0.72733013    0.08988957    -0.12060000
opls_142-70    C    0.61800015    0.96119008    0.54640900    0.08910000
opls_142-71    C    0.62215997    0.42540994    0.70008998    0.04920000
opls_142-72    C    0.28632008    0.42033992    0.56948057    0.08760000
opls_142-73    C    0.29114002    0.94332985    0.19760941    0.08030000
opls_145-74    C    0.06249985    0.22371990    0.45062986    -0.15470000
opls_145-75    C    0.00826025    0.22857003    0.32388957    -0.11840000
opls_700-76    C    0.99318987    0.19024993    0.09039059    0.07700000
opls_145-77    C    0.03845992    0.14904986    0.98791002    -0.12110000
opls_145-78    C    0.09295991    0.14522988    0.11131084    -0.15610000
opls_916-79    C    0.10582012    0.18015990    0.35343967    0.18570000
opls_700-80    C    0.93530022    0.19239987    0.96476074    0.07070000
opls_145-81    C    0.89097998    0.23643978    0.05651943    -0.12150000
opls_145-82    C    0.83524020    0.23678993    0.94356033    -0.15520000
opls_916-83    C    0.82004004    0.19360980    0.72888957    0.18160000
opls_145-84    C    0.86320024    0.14970014    0.63388957    -0.15510000
opls_145-85    C    0.91896995    0.14939011    0.74701022    -0.11850000
opls_916-86    C    0.73217994    0.13116982    0.57565031    0.18350000
opls_916-87    C    0.72742999    0.25158002    0.61947035    0.17810000
opls_916-88    C    0.19407005    0.23409025    0.52151943    0.18360000
opls_916-89    C    0.19377021    0.11279006    0.46359918    0.17580000
opls_145-90    C    0.16440983    0.05259016    0.40622904    -0.17230000
opls_145-91    C    0.19564026    0.99737015    0.32307975    -0.11970000
opls_700-92    C    0.25751007    0.99802984    0.30803067    0.07290000
opls_145-93    C    0.28654008    0.05422998    0.41114928    -0.11880000
opls_145-94    C    0.25570991    0.11028006    0.48906953    -0.16630000
opls_145-95    C    0.69052023    0.12320993    0.36474029    -0.17360000
opls_145-96    C    0.65522983    0.06673987    0.35146012    -0.12050000
opls_700-97    C    0.65887996    0.01689991    0.54961963    0.06980000
opls_145-98    C    0.70344990    0.02314024    0.74748057    -0.12090000
opls_145-99    C    0.74006014    0.07849002    0.75922904    -0.16890000
opls_145-100    C    0.75309006    0.31426020    0.57316973    -0.16520000
opls_145-101    C    0.71962020    0.37129982    0.59679959    -0.12040000
opls_700-102    C    0.65935004    0.36856001    0.66410020    0.07530000
opls_145-103    C    0.63367996    0.30590014    0.69870961    -0.10820000
opls_145-104    C    0.66663006    0.24869015    0.68023926    -0.16660000
opls_145-105    C    0.23805020    0.25137003    0.33146012    -0.16140000
opls_145-106    C    0.26868005    0.31067993    0.35341922    -0.11620000
opls_700-107    C    0.25616024    0.35696983    0.55906953    0.04800000
opls_145-108    C    0.21268007    0.33891001    0.75005930    -0.12140000
opls_145-109    C    0.18223024    0.27887999    0.73368916    -0.16880000
opls_750-110    N    0.26445025    0.89780018    0.05619018    -0.26800000
opls_750-111    N    0.60135998    0.93599003    0.77775051    -0.27210000
opls_750-112    N    0.64564020    0.48376993    0.72268916    -0.26690000
opls_750-113    N    0.32360018    0.43322026    0.37582004    -0.27000000
opls_239-114    N    0.16202981    0.17375019    0.48491002    -0.13010000
opls_239-115    N    0.76191010    0.19276983    0.61652965    -0.11760000
