#======================================================================
# Crystal Data Generated By AuToFF
#----------------------------------------------------------------------

data_AuToFF_phase_1

_cell_length_a                         54.8382
_cell_length_b                         54.8382
_cell_length_c                         15.0000
_cell_angle_alpha                      90.00
_cell_angle_beta                       90.00
_cell_angle_gamma                      120.00
_symmetry_space_group_name_H-M_alt     'P 1'
_symmetry_space_group_IT_number        1

loop_
_space_group_symop_operation_xyz
   'x, y, z'

loop_
   _atom_site_label
   _atom_site_type_symbol
   _atom_site_fract_x
   _atom_site_fract_y
   _atom_site_fract_z
   _atom_site_charge
opls_141-0    C    0.48719995    0.48789999    0.16011000    -0.01850000
opls_700-1    C    0.46012009    0.48749002    0.16171000    0.07960000
opls_145-2    C    0.43754998    0.46772007    0.10968000    -0.11470000
opls_145-3    C    0.41197997    0.46681001    0.10871000    -0.13730000
opls_145-4    C    0.40836013    0.48626011    0.15967000    0.24700000
opls_145-5    C    0.43061014    0.50592014    0.21270000    -0.17120000
opls_145-6    C    0.45570006    0.50613007    0.21435000    -0.12160000
opls_700-7    C    0.48371995    0.45958004    0.15873000    0.07640000
opls_145-8    C    0.46240005    0.43831003    0.21082000    -0.12560000
opls_145-9    C    0.45805005    0.41135013    0.21125000    -0.16500000
opls_145-10    C    0.47562995    0.40501002    0.16070000    0.25020000
opls_145-11    C    0.49690996    0.42597997    0.10810000    -0.15960000
opls_145-12    C    0.50061012    0.45267014    0.10661000    -0.11800000
opls_142-13    C    0.36002008    0.46619010    0.17683000    0.07860000
opls_700-14    C    0.33422998    0.46707005    0.16493000    0.06940000
opls_145-15    C    0.31016011    0.44820006    0.21243000    -0.08350000
opls_145-16    C    0.28648007    0.45099005    0.21020000    -0.11530000
opls_700-17    C    0.28657001    0.47244999    0.15940000    0.09600000
opls_145-18    C    0.31044001    0.49050994    0.10877000    -0.11480000
opls_145-19    C    0.33400995    0.48781997    0.11090000    -0.08540000
opls_700-20    C    0.26218007    0.47633997    0.15956000    0.10630000
opls_142-21    C    0.49192005    0.37439997    0.18513000    0.07810000
opls_700-22    C    0.49031001    0.34738006    0.17776000    0.06950000
opls_145-23    C    0.51016994    0.34266993    0.22102000    -0.11990000
opls_145-24    C    0.50875991    0.31693993    0.21322000    -0.11540000
opls_700-25    C    0.48699003    0.29519994    0.16427000    0.08680000
opls_145-26    C    0.46707007    0.30007010    0.12174000    -0.10440000
opls_145-27    C    0.46885014    0.32590011    0.12687000    -0.11770000
opls_700-28    C    0.48417005    0.26748011    0.16094000    0.08610000
opls_145-29    C    0.50736003    0.26339999    0.16069000    -0.07480000
opls_145-30    C    0.45719994    0.24369005    0.16028000    -0.16930000
opls_145-31    C    0.50377008    0.23673003    0.15948000    -0.16930000
opls_145-32    C    0.23499998    0.45315002    0.16029000    -0.16970000
opls_141-33    C    0.51210012    0.99930008    0.16011000    -0.01850000
opls_700-34    C    0.51251012    0.97263013    0.16171000    0.07950000
opls_145-35    C    0.53227999    0.96983003    0.10968000    -0.11470000
opls_145-36    C    0.53319008    0.94517013    0.10871000    -0.17830000
opls_145-37    C    0.51373004    0.92209010    0.15967000    0.24700000
opls_145-38    C    0.49408007    0.92469016    0.21270000    -0.17060000
opls_145-39    C    0.49385994    0.94955999    0.21435000    -0.12160000
opls_700-40    C    0.54041995    0.02414002    0.15873000    0.07590000
opls_145-41    C    0.56168991    0.02408990    0.21082000    -0.12550000
opls_145-42    C    0.58864989    0.04669995    0.21125000    -0.16500000
opls_145-43    C    0.59498989    0.07061993    0.16070000    0.25020000
opls_145-44    C    0.57402010    0.07093009    0.10810000    -0.15960000
opls_145-45    C    0.54732995    0.04793007    0.10661000    -0.11800000
opls_142-46    C    0.53381017    0.89383017    0.17683000    0.07850000
opls_700-47    C    0.53293009    0.86716001    0.16493000    0.06940000
opls_145-48    C    0.55180003    0.86196010    0.21243000    -0.08350000
opls_145-49    C    0.54901005    0.83548998    0.21020000    -0.11530000
opls_700-50    C    0.52754999    0.81412015    0.15940000    0.09300000
opls_145-51    C    0.50949000    0.81993006    0.10877000    -0.11480000
opls_145-52    C    0.51218000    0.84619005    0.11090000    -0.08540000
opls_700-53    C    0.52365004    0.78584001    0.15956000    0.10620000
opls_142-54    C    0.62560004    0.11751991    0.18513000    0.07810000
opls_700-55    C    0.65261995    0.14293006    0.17776000    0.06950000
opls_145-56    C    0.65732994    0.16750005    0.22102000    -0.11990000
opls_145-57    C    0.68306006    0.19182010    0.21322000    -0.11540000
opls_700-58    C    0.70480007    0.19178009    0.16427000    0.08680000
opls_145-59    C    0.69992995    0.16699996    0.12174000    -0.10440000
opls_145-60    C    0.67410003    0.14295006    0.12687000    -0.11770000
opls_700-61    C    0.73251990    0.21668993    0.16094000    0.07970000
opls_145-62    C    0.73659992    0.24396000    0.16069000    -0.07480000
opls_145-63    C    0.75631004    0.21350998    0.16028000    -0.16930000
opls_145-64    C    0.76326992    0.26704992    0.15948000    -0.16930000
opls_145-65    C    0.54685007    0.78185001    0.16029000    -0.16970000
opls_141-66    C    0.00070003    0.51280014    0.16011000    -0.01850000
opls_700-67    C    0.02737007    0.53988007    0.16171000    0.07960000
opls_145-68    C    0.03017000    0.56244000    0.10968000    -0.12560000
opls_145-69    C    0.05482992    0.58800996    0.10871000    -0.13730000
opls_145-70    C    0.07790006    0.59164011    0.15967000    0.24700000
opls_145-71    C    0.07531000    0.56939012    0.21270000    -0.17140000
opls_145-72    C    0.05043997    0.54430004    0.21435000    -0.12160000
opls_700-73    C    0.97586002    0.51628015    0.15873000    0.07630000
opls_145-74    C    0.97591004    0.53760007    0.21082000    -0.12560000
opls_145-75    C    0.95329998    0.54195013    0.21125000    -0.16500000
opls_145-76    C    0.92937998    0.52437006    0.16070000    0.25030000
opls_145-77    C    0.92907005    0.50309015    0.10810000    -0.16780000
opls_145-78    C    0.95207004    0.49939010    0.10661000    -0.11800000
opls_142-79    C    0.10617015    0.63998015    0.17683000    0.07860000
opls_700-80    C    0.13284003    0.66577015    0.16493000    0.06900000
opls_145-81    C    0.13803997    0.68984005    0.21243000    -0.08350000
opls_145-82    C    0.16451006    0.71351998    0.21020000    -0.11530000
opls_700-83    C    0.18588011    0.71343007    0.15940000    0.09600000
opls_145-84    C    0.18007000    0.68956000    0.10877000    -0.11620000
opls_145-85    C    0.15381002    0.66598008    0.11090000    -0.08540000
opls_700-86    C    0.21416004    0.73782002    0.15956000    0.10620000
opls_142-87    C    0.88248009    0.50808012    0.18513000    0.07810000
opls_700-88    C    0.85706996    0.50969010    0.17776000    0.06950000
opls_145-89    C    0.83249994    0.48983003    0.22102000    -0.11990000
opls_145-90    C    0.80818002    0.49123997    0.21322000    -0.11540000
opls_700-91    C    0.80822008    0.51301008    0.16427000    0.08690000
opls_145-92    C    0.83301001    0.53292995    0.12174000    -0.10440000
opls_145-93    C    0.85704009    0.53115004    0.12687000    -0.11770000
opls_700-94    C    0.78331005    0.51582996    0.16094000    0.07950000
opls_145-95    C    0.75604006    0.49264002    0.16069000    -0.07360000
opls_145-96    C    0.78649001    0.54279997    0.16028000    -0.16930000
opls_145-97    C    0.73295010    0.49623015    0.15948000    -0.16930000
opls_145-98    C    0.21815011    0.76499007    0.16029000    -0.16970000
opls_141-99    C    0.51280005    0.51210001    0.16011000    -0.01850000
opls_700-100    C    0.53987991    0.51250998    0.16171000    0.07950000
opls_145-101    C    0.56244010    0.53228014    0.10968000    -0.08540000
opls_145-102    C    0.58801000    0.53318999    0.10871000    -0.17930000
opls_145-103    C    0.59164003    0.51373000    0.15967000    0.24710000
opls_145-104    C    0.56938997    0.49408007    0.21270000    -0.17060000
opls_145-105    C    0.54430010    0.49386003    0.21435000    -0.12160000
opls_700-106    C    0.51628005    0.54041996    0.15873000    0.07640000
opls_145-107    C    0.53759995    0.56168997    0.21082000    -0.12560000
opls_145-108    C    0.54195005    0.58865008    0.21125000    -0.16500000
opls_145-109    C    0.52437005    0.59498998    0.16070000    0.25020000
opls_145-110    C    0.50309004    0.57402003    0.10810000    -0.15960000
opls_145-111    C    0.49938998    0.54733007    0.10661000    -0.11790000
opls_142-112    C    0.63998003    0.53381011    0.17683000    0.07860000
opls_700-113    C    0.66577002    0.53292995    0.16493000    0.08370000
opls_145-114    C    0.68983999    0.55180015    0.21243000    -0.08350000
opls_145-115    C    0.71351993    0.54900995    0.21020000    -0.11530000
opls_700-116    C    0.71342999    0.52755001    0.15940000    0.09600000
opls_145-117    C    0.68955999    0.50949006    0.10877000    -0.11620000
opls_145-118    C    0.66598002    0.51218003    0.11090000    -0.08540000
opls_700-119    C    0.73781993    0.52366003    0.15956000    0.10960000
opls_142-120    C    0.50807995    0.62560003    0.18513000    0.07810000
opls_700-121    C    0.50969009    0.65262016    0.17776000    0.06950000
opls_145-122    C    0.48983006    0.65733007    0.22102000    -0.11980000
opls_145-123    C    0.49124009    0.68306007    0.21322000    -0.11540000
opls_700-124    C    0.51301013    0.70479016    0.16427000    0.08680000
opls_145-125    C    0.53293003    0.69993011    0.12174000    -0.10450000
opls_145-126    C    0.53114997    0.67410010    0.12687000    -0.11770000
opls_700-127    C    0.51583006    0.73252010    0.16094000    0.07950000
opls_145-128    C    0.49263997    0.73660001    0.16069000    -0.07480000
opls_145-129    C    0.54280016    0.75631016    0.16028000    -0.16920000
opls_145-130    C    0.49622992    0.76326997    0.15948000    -0.16930000
opls_145-131    C    0.76498999    0.54684998    0.16029000    -0.16970000
opls_141-132    C    0.48789988    0.00069992    0.16011000    -0.01850000
opls_700-133    C    0.48748998    0.02737008    0.16171000    0.07950000
opls_145-134    C    0.46772001    0.03016997    0.10968000    -0.11470000
opls_145-135    C    0.46681002    0.05483008    0.10871000    -0.13720000
opls_145-136    C    0.48626993    0.07790000    0.15967000    0.24710000
opls_145-137    C    0.50592003    0.07531005    0.21270000    -0.16660000
opls_145-138    C    0.50613003    0.05044001    0.21435000    -0.12160000
opls_700-139    C    0.45958005    0.97585998    0.15873000    0.07590000
opls_145-140    C    0.43831009    0.97591010    0.21082000    -0.12560000
opls_145-141    C    0.41135011    0.95330005    0.21125000    -0.16500000
opls_145-142    C    0.40501011    0.92938007    0.16070000    0.25020000
opls_145-143    C    0.42598005    0.92906001    0.10810000    -0.15960000
opls_145-144    C    0.45267015    0.95207014    0.10661000    -0.11780000
opls_142-145    C    0.46618994    0.10617004    0.17683000    0.07860000
opls_700-146    C    0.46706991    0.13283999    0.16493000    0.06940000
opls_145-147    C    0.44820008    0.13804011    0.21243000    -0.08350000
opls_145-148    C    0.45098995    0.16451002    0.21020000    -0.11530000
opls_700-149    C    0.47245011    0.18588006    0.15940000    0.09600000
opls_145-150    C    0.49051000    0.18006994    0.10877000    -0.11480000
opls_145-151    C    0.48782000    0.15380995    0.11090000    -0.08540000
opls_700-152    C    0.47633993    0.21415999    0.15956000    0.10620000
opls_142-153    C    0.37439996    0.88248009    0.18513000    0.07810000
opls_700-154    C    0.34738015    0.85707015    0.17776000    0.06960000
opls_145-155    C    0.34267017    0.83250016    0.22102000    -0.11990000
opls_145-156    C    0.31694004    0.80818011    0.21322000    -0.11530000
opls_700-157    C    0.29520003    0.80822012    0.16427000    0.08670000
opls_145-158    C    0.30007000    0.83301015    0.12174000    -0.10440000
opls_145-159    C    0.32590008    0.85705015    0.12687000    -0.11770000
opls_700-160    C    0.26748010    0.78331007    0.16094000    0.07970000
opls_145-161    C    0.26340008    0.75604000    0.16069000    -0.07480000
opls_145-162    C    0.24368996    0.78649002    0.16028000    -0.16920000
opls_145-163    C    0.23673008    0.73295008    0.15948000    -0.16920000
opls_145-164    C    0.45314993    0.21814999    0.16029000    -0.16970000
opls_141-165    C    0.99930008    0.48720007    0.16011000    -0.01850000
opls_700-166    C    0.97263003    0.46012014    0.16171000    0.07960000
opls_145-167    C    0.96983000    0.43756000    0.10968000    -0.12560000
opls_145-168    C    0.94517008    0.41199004    0.10871000    -0.13710000
opls_145-169    C    0.92210004    0.40836010    0.15967000    0.24700000
opls_145-170    C    0.92469011    0.43061009    0.21270000    -0.17140000
opls_145-171    C    0.94956003    0.45569996    0.21435000    -0.12160000
opls_700-172    C    0.02414008    0.48372006    0.15873000    0.07630000
opls_145-173    C    0.02409006    0.46240014    0.21082000    -0.12560000
opls_145-174    C    0.04670013    0.45805008    0.21125000    -0.16500000
opls_145-175    C    0.07062002    0.47562994    0.16070000    0.25020000
opls_145-176    C    0.07093006    0.49691006    0.10810000    -0.16770000
opls_145-177    C    0.04793007    0.50061011    0.10661000    -0.11800000
opls_142-178    C    0.89382996    0.36002006    0.17683000    0.07860000
opls_700-179    C    0.86716007    0.33423006    0.16493000    0.06940000
opls_145-180    C    0.86196003    0.31015995    0.21243000    -0.08350000
opls_145-181    C    0.83548994    0.28648002    0.21020000    -0.11520000
opls_700-182    C    0.81411989    0.28656993    0.15940000    0.09600000
opls_145-183    C    0.81993000    0.31044000    0.10877000    -0.11480000
opls_145-184    C    0.84618996    0.33401002    0.11090000    -0.08540000
opls_700-185    C    0.78583996    0.26217998    0.15956000    0.10440000
opls_142-186    C    0.11752002    0.49192009    0.18513000    0.07810000
opls_700-187    C    0.14293015    0.49031011    0.17776000    0.06950000
opls_145-188    C    0.16750006    0.51016997    0.22102000    -0.11990000
opls_145-189    C    0.19181998    0.50876003    0.21322000    -0.11530000
opls_700-190    C    0.19178002    0.48699014    0.16427000    0.08690000
opls_145-191    C    0.16698999    0.46707005    0.12174000    -0.10450000
opls_145-192    C    0.14295006    0.46884996    0.12687000    -0.11770000
opls_700-193    C    0.21668995    0.48417004    0.16094000    0.07950000
opls_145-194    C    0.24395994    0.50735998    0.16069000    -0.07360000
opls_145-195    C    0.21350999    0.45720003    0.16028000    -0.16930000
opls_145-196    C    0.26705001    0.50377006    0.15948000    -0.16930000
opls_145-197    C    0.78185005    0.23500003    0.16029000    -0.16970000
opls_146-198    H    0.47310009    0.52130002    0.26055000    0.04780000
opls_146-199    H    0.44070010    0.45280006    0.06511000    0.04780000
opls_146-200    H    0.39500000    0.45210014    0.06146000    0.04940000
opls_146-201    H    0.42750010    0.52060010    0.25802000    0.05010000
opls_146-202    H    0.44900005    0.44360006    0.25590000    0.04650000
opls_146-203    H    0.44169992    0.39520000    0.25702000    0.04960000
opls_146-204    H    0.50990002    0.42080008    0.06233000    0.05040000
opls_146-205    H    0.51709999    0.46910011    0.06114000    0.04910000
opls_144-206    H    0.35870007    0.44730010    0.21122000    0.04020000
opls_146-207    H    0.31120003    0.43230008    0.25901000    0.04590000
opls_146-208    H    0.26860005    0.43739997    0.25501000    0.10560000
opls_146-209    H    0.31040001    0.50660006    0.06268000    0.05430000
opls_146-210    H    0.35350002    0.50180002    0.06902000    0.04590000
opls_144-211    H    0.51160009    0.39240012    0.21580000    0.03180000
opls_146-212    H    0.52639994    0.35990004    0.26730000    0.04410000
opls_146-213    H    0.52379994    0.31349993    0.25302000    0.12550000
opls_146-214    H    0.45059993    0.28379995    0.07834000    0.11710000
opls_146-215    H    0.45409991    0.33099999    0.08933000    0.05010000
opls_146-216    H    0.52809998    0.28220008    0.16078000    0.12260000
opls_146-217    H    0.43869995    0.24699992    0.16164000    0.04590000
opls_146-218    H    0.28730004    0.52170009    0.15963000    0.27550000
opls_146-219    H    0.23320006    0.43240010    0.16004000    0.11790000
opls_146-220    H    0.47870005    0.95179998    0.26055000    0.04780000
opls_146-221    H    0.54719997    0.98790009    0.06511000    0.04780000
opls_146-222    H    0.54790001    0.94290003    0.06146000    0.04940000
opls_146-223    H    0.47940005    0.90690015    0.25802000    0.05010000
opls_146-224    H    0.55639995    0.00539994    0.25590000    0.04650000
opls_146-225    H    0.60480004    0.04649991    0.25702000    0.04960000
opls_146-226    H    0.57919991    0.08909995    0.06233000    0.05040000
opls_146-227    H    0.53089992    0.04799998    0.06114000    0.04910000
opls_144-228    H    0.55270015    0.91140014    0.21122000    0.04020000
opls_146-229    H    0.56770004    0.87890006    0.25901000    0.04590000
opls_146-230    H    0.56260015    0.83120013    0.25501000    0.10560000
opls_146-231    H    0.49340016    0.80380015    0.06268000    0.05430000
opls_146-232    H    0.49819999    0.85170011    0.06902000    0.04590000
opls_144-233    H    0.60759994    0.11920001    0.21580000    0.03180000
opls_146-234    H    0.64010001    0.16650007    0.26730000    0.04410000
opls_146-235    H    0.68650000    0.21029991    0.25302000    0.12550000
opls_146-236    H    0.71619991    0.16679992    0.07834000    0.11710000
opls_146-237    H    0.66899997    0.12310010    0.08933000    0.05010000
opls_146-238    H    0.71779991    0.24589993    0.16078000    0.12260000
opls_146-239    H    0.75299998    0.19170007    0.16164000    0.04590000
opls_146-240    H    0.47830007    0.76560008    0.15963000    0.27550000
opls_146-241    H    0.56760006    0.80080002    0.16004000    0.11780000
opls_146-242    H    0.04820004    0.52690000    0.26055000    0.04780000
opls_146-243    H    0.01210004    0.55930006    0.06511000    0.04780000
opls_146-244    H    0.05710010    0.60500003    0.06146000    0.04940000
opls_146-245    H    0.09309995    0.57249996    0.25802000    0.05010000
opls_146-246    H    0.99460001    0.55100000    0.25590000    0.04650000
opls_146-247    H    0.95350004    0.55830008    0.25702000    0.04960000
opls_146-248    H    0.91090007    0.49009997    0.06233000    0.05040000
opls_146-249    H    0.95200001    0.48290012    0.06114000    0.05010000
opls_144-250    H    0.08860006    0.64129997    0.21122000    0.04030000
opls_146-251    H    0.12110004    0.68880007    0.25901000    0.04590000
opls_146-252    H    0.16880008    0.73140011    0.25501000    0.10570000
opls_146-253    H    0.19619994    0.68960000    0.06268000    0.05430000
opls_146-254    H    0.14830010    0.64650008    0.06902000    0.04600000
opls_144-255    H    0.88080007    0.48840008    0.21580000    0.03180000
opls_146-256    H    0.83349998    0.47360010    0.26730000    0.04410000
opls_146-257    H    0.78969995    0.47619994    0.25302000    0.12550000
opls_146-258    H    0.83319998    0.54940013    0.07834000    0.05810000
opls_146-259    H    0.87690004    0.54590012    0.08933000    0.05010000
opls_146-260    H    0.75409994    0.47189999    0.16078000    0.12270000
opls_146-261    H    0.80830007    0.56130000    0.16164000    0.04590000
opls_146-262    H    0.23439999    0.71270004    0.15963000    0.27560000
opls_146-263    H    0.19919998    0.76680009    0.16004000    0.11980000
opls_146-264    H    0.52689991    0.47869998    0.26055000    0.04780000
opls_146-265    H    0.55930001    0.54720015    0.06511000    0.04780000
opls_146-266    H    0.60500010    0.54790007    0.06146000    0.04940000
opls_146-267    H    0.57250000    0.47940011    0.25802000    0.05010000
opls_146-268    H    0.55100006    0.55640016    0.25590000    0.04650000
opls_146-269    H    0.55830008    0.60480000    0.25702000    0.04960000
opls_146-270    H    0.49010008    0.57920014    0.06233000    0.05040000
opls_146-271    H    0.48290011    0.53090010    0.06114000    0.04910000
opls_144-272    H    0.64130003    0.55270011    0.21122000    0.04020000
opls_146-273    H    0.68880008    0.56770013    0.25901000    0.04590000
opls_146-274    H    0.73139995    0.56260003    0.25501000    0.10560000
opls_146-275    H    0.68959999    0.49339994    0.06268000    0.05430000
opls_146-276    H    0.64649998    0.49819998    0.06902000    0.04590000
opls_144-277    H    0.48840001    0.60760009    0.21580000    0.03180000
opls_146-278    H    0.47360006    0.64009996    0.26730000    0.04410000
opls_146-279    H    0.47620006    0.68650007    0.25302000    0.12550000
opls_146-280    H    0.54940007    0.71620005    0.07834000    0.11720000
opls_146-281    H    0.54590009    0.66900001    0.08933000    0.05010000
opls_146-282    H    0.47190013    0.71780013    0.16078000    0.12260000
opls_146-283    H    0.56130005    0.75300008    0.16164000    0.04590000
opls_146-284    H    0.71270007    0.47830012    0.15963000    0.27550000
opls_146-285    H    0.76680004    0.56760011    0.16004000    0.12070000
opls_146-286    H    0.52129995    0.04820002    0.26055000    0.04780000
opls_146-287    H    0.45280003    0.01209991    0.06511000    0.04780000
opls_146-288    H    0.45209999    0.05709997    0.06146000    0.04940000
opls_146-289    H    0.52060005    0.09310006    0.25802000    0.05010000
opls_146-290    H    0.44360005    0.99460006    0.25590000    0.04650000
opls_146-291    H    0.39519996    0.95350009    0.25702000    0.04960000
opls_146-292    H    0.42080009    0.91090005    0.06233000    0.05030000
opls_146-293    H    0.46910008    0.95200002    0.06114000    0.04910000
opls_144-294    H    0.44729995    0.08860007    0.21122000    0.04020000
opls_146-295    H    0.43229996    0.12109994    0.25901000    0.04590000
opls_146-296    H    0.43739995    0.16880008    0.25501000    0.10560000
opls_146-297    H    0.50659994    0.19620006    0.06268000    0.05440000
opls_146-298    H    0.50180012    0.14830010    0.06902000    0.04590000
opls_144-299    H    0.39240006    0.88079999    0.21580000    0.03180000
opls_146-300    H    0.35990010    0.83350014    0.26730000    0.04410000
opls_146-301    H    0.31350000    0.78970009    0.25302000    0.12550000
opls_146-302    H    0.28380009    0.83320008    0.07834000    0.11710000
opls_146-303    H    0.33100014    0.87690011    0.08933000    0.05010000
opls_146-304    H    0.28220009    0.75410007    0.16078000    0.12260000
opls_146-305    H    0.24700013    0.80830014    0.16164000    0.04590000
opls_146-306    H    0.52169993    0.23439992    0.15963000    0.27560000
opls_146-307    H    0.43239994    0.19919998    0.16004000    0.11780000
opls_146-308    H    0.95179996    0.47310000    0.26055000    0.04780000
opls_146-309    H    0.98789996    0.44069994    0.06511000    0.04780000
opls_146-310    H    0.94289990    0.39499997    0.06146000    0.04940000
opls_146-311    H    0.90690005    0.42750004    0.25802000    0.05010000
opls_146-312    H    0.00539999    0.44900000    0.25590000    0.04650000
opls_146-313    H    0.04650007    0.44170013    0.25702000    0.04960000
opls_146-314    H    0.08909993    0.50990003    0.06233000    0.05040000
opls_146-315    H    0.04800010    0.51710009    0.06114000    0.05010000
opls_144-316    H    0.91139994    0.35870003    0.21122000    0.04020000
opls_146-317    H    0.87889996    0.31119993    0.25901000    0.04590000
opls_146-318    H    0.83120002    0.26860010    0.25501000    0.10560000
opls_146-319    H    0.80380006    0.31040000    0.06268000    0.05430000
opls_146-320    H    0.85170001    0.35350013    0.06902000    0.04590000
opls_144-321    H    0.11920003    0.51160013    0.21580000    0.03180000
opls_146-322    H    0.16650013    0.52640012    0.26730000    0.04410000
opls_146-323    H    0.21030005    0.52380006    0.25302000    0.12550000
opls_146-324    H    0.16680013    0.45060008    0.07834000    0.05820000
opls_146-325    H    0.12310006    0.45410009    0.08933000    0.05010000
opls_146-326    H    0.24590006    0.52810001    0.16078000    0.12260000
opls_146-327    H    0.19169993    0.43870000    0.16164000    0.04590000
opls_146-328    H    0.76560001    0.28729996    0.15963000    0.27550000
opls_146-329    H    0.80080013    0.23320012    0.16004000    0.11780000
opls_750-330    N    0.38378004    0.48705015    0.15501000    -0.15300000
opls_750-331    N    0.47171014    0.37817014    0.16101000    -0.17670000
opls_750-332    N    0.51295010    0.89672018    0.15501000    -0.15310000
opls_750-333    N    0.62183005    0.09353993    0.16101000    -0.17670000
opls_750-334    N    0.10327997    0.61621999    0.15501000    -0.15300000
opls_750-335    N    0.90646010    0.52829015    0.16101000    -0.17670000
opls_750-336    N    0.61622006    0.51295006    0.15501000    -0.15310000
opls_750-337    N    0.52828997    0.62183008    0.16101000    -0.17660000
opls_750-338    N    0.48704988    0.10326993    0.15501000    -0.15310000
opls_750-339    N    0.37816995    0.90646007    0.16101000    -0.17670000
opls_750-340    N    0.89673006    0.38378001    0.15501000    -0.15310000
opls_750-341    N    0.09354000    0.47171006    0.16101000    -0.17670000
