#======================================================================
# Crystal Data Generated By AuToFF
#----------------------------------------------------------------------

data_AuToFF_phase_1

_cell_length_a                         6.3319
_cell_length_b                         15.0036
_cell_length_c                         8.5603
_cell_angle_alpha                      90.00
_cell_angle_beta                       92.67
_cell_angle_gamma                      90.00
_symmetry_space_group_name_H-M_alt     'P 1'
_symmetry_space_group_IT_number        1

loop_
_space_group_symop_operation_xyz
   'x, y, z'

loop_
   _atom_site_label
   _atom_site_type_symbol
   _atom_site_fract_x
   _atom_site_fract_y
   _atom_site_fract_z
   _atom_site_charge
opls_750-0    N    0.18401957    0.71033019    0.11524005    -0.22460000
opls_750-1    N    0.72779028    0.14125010    0.85848940    -0.21370000
opls_750-2    N    0.81598043    0.71033019    0.88475995    -0.22460000
opls_750-3    N    0.27220964    0.14125010    0.14150943    -0.21370000
opls_142-4    C    0.28798010    0.77107028    0.15514991    0.07460000
opls_145-5    C    0.71915987    0.84934016    0.91748002    0.02190000
opls_145-6    C    0.68181951    0.92015983    0.84297897    -0.14290000
opls_145-7    C    0.70615977    0.99680010    0.90253911    0.02120000
opls_145-8    C    0.76209046    0.00225013    0.04056943    -0.21800000
opls_145-9    C    0.79543948    0.93163974    0.11676970    -0.16290000
opls_145-10    C    0.77608054    0.85536005    0.05513027    -0.21800000
opls_142-11    C    0.31175974    0.06893012    0.18605967    0.07460000
opls_145-12    C    0.84338061    0.63781026    0.80581966    0.13910000
opls_145-13    C    0.02214019    0.60040990    0.81027994    -0.22290000
opls_145-14    C    0.06900054    0.53990975    0.71585963    -0.21800000
opls_145-15    C    0.93482019    0.51435989    0.61829934    0.03570000
opls_145-16    C    0.75106042    0.54737996    0.62010965    -0.21900000
opls_145-17    C    0.70464056    0.60864992    0.71374994    -0.22290000
opls_145-18    C    0.11222983    0.33533019    0.39982949    0.02360000
opls_145-19    C    0.92083000    0.33872004    0.74204949    -0.21800000
opls_145-20    C    0.84527017    0.27875976    0.82815968    -0.22210000
opls_145-21    C    0.74798030    0.21228972    0.77386908    0.13960000
opls_145-22    C    0.69874058    0.21330014    0.63419919    -0.22570000
opls_145-23    C    0.76702034    0.27462009    0.54864917    -0.21800000
opls_142-24    C    0.71201990    0.77107028    0.84485009    0.07460000
opls_145-25    C    0.28084013    0.84934016    0.08251998    0.02190000
opls_145-26    C    0.31818041    0.92015983    0.15701986    -0.14290000
opls_145-27    C    0.29384015    0.99680010    0.09745972    0.02120000
opls_145-28    C    0.23790947    0.00225013    0.95942940    -0.21800000
opls_145-29    C    0.20456045    0.93163974    0.88322914    -0.16290000
opls_145-30    C    0.22391946    0.85536005    0.94486973    -0.21800000
opls_142-31    C    0.68824018    0.06893012    0.81393916    0.07460000
opls_145-32    C    0.15661939    0.63781026    0.19418034    0.13910000
opls_145-33    C    0.97785981    0.60040990    0.18972006    -0.22280000
opls_145-34    C    0.93099946    0.53990975    0.28414037    -0.21800000
opls_145-35    C    0.06517974    0.51435989    0.38169949    0.03570000
opls_145-36    C    0.24893958    0.54737996    0.37989035    -0.21900000
opls_145-37    C    0.29535944    0.60864992    0.28625006    -0.22290000
opls_145-38    C    0.88777010    0.33533019    0.60016934    0.02360000
opls_145-39    C    0.07916992    0.33872004    0.25794934    -0.21800000
opls_145-40    C    0.15472983    0.27875976    0.17184032    -0.22210000
opls_145-41    C    0.25201962    0.21228972    0.22612975    0.13970000
opls_145-42    C    0.30125935    0.21330014    0.36579964    -0.22560000
opls_145-43    C    0.23297959    0.27462009    0.45134966    -0.21800000
opls_141-44    C    0.00000079    0.46600016    0.50000000    -0.02080000
opls_141-45    C    0.00000079    0.38396985    0.50000000    -0.03150000
opls_144-46    H    0.35808932    0.76942001    0.25416032    0.08860000
opls_146-47    H    0.64151079    0.91561025    0.73594963    0.18890000
opls_146-48    H    0.78352976    0.06099003    0.08789010    0.18880000
opls_146-49    H    0.84124012    0.93610000    0.22253018    0.18880000
opls_146-50    H    0.80874057    0.80113973    0.11331046    0.18850000
opls_144-51    H    0.33755083    0.05814005    0.29358018    0.08860000
opls_146-52    H    0.12955071    0.62254992    0.88055928    0.18880000
opls_146-53    H    0.21267059    0.51571023    0.71423994    0.18880000
opls_146-54    H    0.64828040    0.52847983    0.54426022    0.18890000
opls_146-55    H    0.56358086    0.63513024    0.71089999    0.18880000
opls_146-56    H    0.01460989    0.38383988    0.78538935    0.18860000
opls_146-57    H    0.87326986    0.28025007    0.93651985    0.18880000
opls_146-58    H    0.61532990    0.16548028    0.58901979    0.18880000
opls_146-59    H    0.73679970    0.27156016    0.43978028    0.18880000
opls_144-60    H    0.64191068    0.76942001    0.74583968    0.08860000
opls_146-61    H    0.35849079    0.91561025    0.26405037    0.18880000
opls_146-62    H    0.21647024    0.06099003    0.91210990    0.18880000
opls_146-63    H    0.15875988    0.93610000    0.77746982    0.18880000
opls_146-64    H    0.19125943    0.80113973    0.88668954    0.18850000
opls_144-65    H    0.66245075    0.05814005    0.70641982    0.08860000
opls_146-66    H    0.87044922    0.62254992    0.11943955    0.18880000
opls_146-67    H    0.78732941    0.51571023    0.28576006    0.18880000
opls_146-68    H    0.35171960    0.52847983    0.45573978    0.18880000
opls_146-69    H    0.43642072    0.63513024    0.28910001    0.18880000
opls_146-70    H    0.98539004    0.38383988    0.21460949    0.18860000
opls_146-71    H    0.12673014    0.28025007    0.06348015    0.18880000
opls_146-72    H    0.38467010    0.16548028    0.41098021    0.18880000
opls_146-73    H    0.26320030    0.27156016    0.56021972    0.18880000
