#======================================================================
# Crystal Data Generated By AuToFF
#----------------------------------------------------------------------

data_AuToFF_phase_1

_cell_length_a                         37.5842
_cell_length_b                         37.5842
_cell_length_c                         3.7406
_cell_angle_alpha                      90.00
_cell_angle_beta                       90.00
_cell_angle_gamma                      120.00
_symmetry_space_group_name_H-M_alt     'P 1'
_symmetry_space_group_IT_number        1

loop_
_space_group_symop_operation_xyz
   'x, y, z'

loop_
   _atom_site_label
   _atom_site_type_symbol
   _atom_site_fract_x
   _atom_site_fract_y
   _atom_site_fract_z
   _atom_site_charge
opls_700-0    C    0.28979003    0.64175991    0.52072929    0.07200000
opls_145-1    C    0.31502989    0.62391997    0.52048869    -0.14710000
opls_700-2    C    0.24397007    0.61562997    0.52503074    0.07180000
opls_145-3    C    0.37002987    0.58855991    0.38340908    -0.12100000
opls_145-4    C    0.39378986    0.56960994    0.39400096    -0.18160000
opls_145-5    C    0.43365005    0.59015013    0.54517992    0.20150000
opls_145-6    C    0.44884997    0.63045998    0.67580067    -0.17090000
opls_145-7    C    0.42446984    0.64871991    0.67099128    -0.12300000
opls_142-8    C    0.44594002    0.53433990    0.60954125    0.03050000
opls_700-9    C    0.47344992    0.51693991    0.60417045    -0.02850000
opls_166-10    C    0.45715000    0.47364993    0.59689087    0.22260000
opls_145-11    C    0.48342006    0.45717010    0.60264129    -0.19580000
opls_182-12    C    0.60429991    0.59177999    0.46482917    -0.03250000
opls_927-13    C    0.35309987    0.39462998    0.36036999    -0.04320000
opls_925-14    C    0.31798015    0.38207010    0.26883120    -0.20600000
opls_700-15    C    0.35824011    0.64803018    0.52072929    0.07200000
opls_145-16    C    0.37608007    0.69111001    0.52048869    -0.14710000
opls_700-17    C    0.38437002    0.62834009    0.52503074    0.07180000
opls_145-18    C    0.41144005    0.78147014    0.38340908    -0.12100000
opls_145-19    C    0.43039001    0.82418007    0.39400096    -0.18160000
opls_145-20    C    0.40985002    0.84349994    0.54517992    0.20150000
opls_145-21    C    0.36954004    0.81839001    0.67580067    -0.17090000
opls_145-22    C    0.35128016    0.77575013    0.67099128    -0.12300000
opls_142-23    C    0.46566000    0.91160000    0.60954125    0.03050000
opls_700-24    C    0.48305995    0.95651001    0.60417045    -0.02850000
opls_166-25    C    0.52635001    0.98350020    0.59689087    0.22260000
opls_145-26    C    0.54283007    0.02625007    0.60264129    -0.19580000
opls_182-27    C    0.40822010    0.01251994    0.46482917    -0.03250000
opls_927-28    C    0.60536999    0.95847014    0.36036999    -0.04320000
opls_925-29    C    0.61792994    0.93590991    0.26883120    -0.20600000
opls_700-30    C    0.35196986    0.71020991    0.52072929    0.07200000
opls_145-31    C    0.30889004    0.68497002    0.52048869    -0.14710000
opls_700-32    C    0.37165990    0.75602993    0.52503074    0.07180000
opls_145-33    C    0.21853008    0.62996995    0.38340908    -0.12100000
opls_145-34    C    0.17582012    0.60620999    0.39400096    -0.18160000
opls_145-35    C    0.15649992    0.56634992    0.54517992    0.20150000
opls_145-36    C    0.18160999    0.55115001    0.67580067    -0.17090000
opls_145-37    C    0.22424999    0.57552996    0.67099128    -0.12300000
opls_142-38    C    0.08839998    0.55406009    0.60954125    0.03050000
opls_700-39    C    0.04349013    0.52655008    0.60417045    -0.02850000
opls_166-40    C    0.01650015    0.54285018    0.59689087    0.22260000
opls_145-41    C    0.97375003    0.51658015    0.60264129    -0.19580000
opls_182-42    C    0.98747998    0.39570007    0.46482917    -0.03250000
opls_927-43    C    0.04153003    0.64690018    0.36036999    -0.04320000
opls_925-44    C    0.06408991    0.68201999    0.26883120    -0.20600000
opls_700-45    C    0.71020997    0.35824009    0.52072929    0.07200000
opls_145-46    C    0.68497011    0.37608003    0.52048869    -0.14710000
opls_700-47    C    0.75602993    0.38437003    0.52503074    0.07180000
opls_145-48    C    0.62997013    0.41144009    0.38340908    -0.12100000
opls_145-49    C    0.60621014    0.43039006    0.39400096    -0.18160000
opls_145-50    C    0.56635010    0.40985017    0.54517992    0.20150000
opls_145-51    C    0.55115003    0.36954002    0.67580067    -0.17090000
opls_145-52    C    0.57553016    0.35128009    0.67099128    -0.12300000
opls_142-53    C    0.55405998    0.46566010    0.60954125    0.03050000
opls_700-54    C    0.52655008    0.48306009    0.60417045    -0.02850000
opls_166-55    C    0.54285000    0.52635007    0.59689087    0.22260000
opls_145-56    C    0.51657994    0.54282990    0.60264129    -0.19580000
opls_182-57    C    0.39570009    0.40822001    0.46482917    -0.03250000
opls_927-58    C    0.64690013    0.60537002    0.36036999    -0.04320000
opls_925-59    C    0.68201985    0.61792990    0.26883120    -0.20600000
opls_700-60    C    0.64176004    0.35197013    0.52072929    0.07200000
opls_145-61    C    0.62391993    0.30888999    0.52048869    -0.14710000
opls_700-62    C    0.61562998    0.37165991    0.52503074    0.07180000
opls_145-63    C    0.58855995    0.21852986    0.38340908    -0.12100000
opls_145-64    C    0.56960999    0.17581993    0.39400096    -0.18150000
opls_145-65    C    0.59014998    0.15650006    0.54517992    0.20150000
opls_145-66    C    0.63045996    0.18160999    0.67580067    -0.17090000
opls_145-67    C    0.64871984    0.22424987    0.67099128    -0.12300000
opls_142-68    C    0.53434000    0.08840000    0.60954125    0.03050000
opls_700-69    C    0.51694005    0.04348999    0.60417045    -0.02850000
opls_166-70    C    0.47365014    0.01650011    0.59689087    0.22270000
opls_145-71    C    0.45716993    0.97374993    0.60264129    -0.19580000
opls_182-72    C    0.59177990    0.98748006    0.46482917    -0.03250000
opls_927-73    C    0.39463001    0.04152986    0.36036999    -0.04310000
opls_925-74    C    0.38207006    0.06409009    0.26883120    -0.20600000
opls_700-75    C    0.64803014    0.28979009    0.52072929    0.07200000
opls_145-76    C    0.69110996    0.31502998    0.52048869    -0.14710000
opls_700-77    C    0.62834010    0.24397007    0.52503074    0.07180000
opls_145-78    C    0.78146992    0.37003005    0.38340908    -0.12100000
opls_145-79    C    0.82417988    0.39379001    0.39400096    -0.18160000
opls_145-80    C    0.84350008    0.43365008    0.54517992    0.20150000
opls_145-81    C    0.81839001    0.44884999    0.67580067    -0.17090000
opls_145-82    C    0.77575001    0.42447004    0.67099128    -0.12300000
opls_142-83    C    0.91160002    0.44593991    0.60954125    0.03050000
opls_700-84    C    0.95650987    0.47344992    0.60417045    -0.02850000
opls_166-85    C    0.98350000    0.45715013    0.59689087    0.22260000
opls_145-86    C    0.02625013    0.48342016    0.60264129    -0.19580000
opls_182-87    C    0.01252002    0.60429993    0.46482917    -0.03250000
opls_927-88    C    0.95847012    0.35310012    0.36036999    -0.04320000
opls_925-89    C    0.93591009    0.31798001    0.26883120    -0.20590000
opls_750-90    N    0.45977992    0.57319993    0.55328022    -0.28260000
opls_750-91    N    0.42680014    0.88658009    0.55328022    -0.28280000
opls_750-92    N    0.11341995    0.54021998    0.55328022    -0.28280000
opls_750-93    N    0.54022008    0.42680007    0.55328022    -0.28280000
opls_750-94    N    0.57319986    0.11341991    0.55328022    -0.28270000
opls_750-95    N    0.88658005    0.45978002    0.55328022    -0.28280000
opls_179-96    O    0.41488992    0.44979995    0.58543014    -0.18230000
opls_179-97    O    0.55020004    0.96509003    0.58543014    -0.18230000
opls_179-98    O    0.03491004    0.58511002    0.58543014    -0.18220000
opls_179-99    O    0.58511008    0.55020005    0.58543014    -0.18230000
opls_179-100    O    0.44979996    0.03490997    0.58543014    -0.18230000
opls_179-101    O    0.96508996    0.41488998    0.58543014    -0.18230000
opls_146-102    H    0.30075011    0.59055998    0.52110891    0.11220000
opls_146-103    H    0.34005012    0.57213999    0.25430947    0.11250000
opls_146-104    H    0.38180984    0.53934991    0.27314067    0.11200000
opls_146-105    H    0.47932998    0.64669004    0.79570924    0.11250000
opls_146-106    H    0.43683003    0.67914001    0.78964070    0.11200000
opls_144-107    H    0.41307989    0.51245988    0.66859060    0.06550000
opls_146-108    H    0.47148011    0.42414007    0.60745068    0.11420000
opls_185-109    H    0.58742001    0.59472019    0.23366038    0.06140000
opls_185-110    H    0.60415998    0.61249991    0.67714003    0.06140000
opls_926-111    H    0.28744002    0.37238005    0.18517083    0.25250000
opls_146-112    H    0.40943988    0.71018994    0.52110891    0.11220000
opls_146-113    H    0.42785984    0.76790992    0.25430947    0.11250000
opls_146-114    H    0.46065001    0.84245997    0.27314067    0.11200000
opls_146-115    H    0.35330999    0.83263997    0.79570924    0.11250000
opls_146-116    H    0.32085994    0.75768990    0.78964070    0.11200000
opls_144-117    H    0.48754011    0.90062021    0.66859060    0.06550000
opls_146-118    H    0.57585996    0.04733989    0.60745068    0.11420000
opls_185-119    H    0.40528003    0.99269990    0.23366038    0.06140000
opls_185-120    H    0.38749987    0.99165993    0.67714003    0.06130000
opls_926-121    H    0.62762011    0.91506003    0.18517083    0.25250000
opls_146-122    H    0.28981001    0.69925008    0.52110891    0.11220000
opls_146-123    H    0.23209003    0.65995010    0.25430947    0.11260000
opls_146-124    H    0.15754015    0.61819012    0.27314067    0.11200000
opls_146-125    H    0.16736002    0.52067000    0.79570924    0.11250000
opls_146-126    H    0.24231003    0.56317009    0.78964070    0.11200000
opls_144-127    H    0.09938000    0.58691991    0.66859060    0.06550000
opls_146-128    H    0.95265993    0.52852004    0.60745068    0.11420000
opls_185-129    H    0.00729996    0.41257991    0.23366038    0.06140000
opls_185-130    H    0.00834015    0.39584016    0.67714003    0.06130000
opls_926-131    H    0.08493987    0.71255991    0.18517083    0.25250000
opls_146-132    H    0.69924989    0.40944002    0.52110891    0.11220000
opls_146-133    H    0.65994988    0.42786001    0.25430947    0.11250000
opls_146-134    H    0.61819016    0.46065009    0.27314067    0.11200000
opls_146-135    H    0.52067002    0.35330996    0.79570924    0.11250000
opls_146-136    H    0.56316997    0.32085999    0.78964070    0.11200000
opls_144-137    H    0.58692011    0.48754012    0.66859060    0.06550000
opls_146-138    H    0.52851989    0.57585993    0.60745068    0.11420000
opls_185-139    H    0.41258014    0.40528012    0.23366038    0.06140000
opls_185-140    H    0.39584002    0.38750009    0.67714003    0.06130000
opls_926-141    H    0.71255998    0.62761995    0.18517083    0.25250000
opls_146-142    H    0.59056012    0.28981006    0.52110891    0.11230000
opls_146-143    H    0.57214016    0.23209008    0.25430947    0.11250000
opls_146-144    H    0.53934999    0.15754003    0.27314067    0.11200000
opls_146-145    H    0.64669001    0.16736003    0.79570924    0.11250000
opls_146-146    H    0.67914006    0.24231010    0.78964070    0.11200000
opls_144-147    H    0.51246004    0.09938010    0.66859060    0.06550000
opls_146-148    H    0.42414004    0.95266011    0.60745068    0.11420000
opls_185-149    H    0.59471997    0.00730010    0.23366038    0.06140000
opls_185-150    H    0.61250013    0.00834007    0.67714003    0.06130000
opls_926-151    H    0.37237989    0.08493997    0.18517083    0.25250000
opls_146-152    H    0.71018999    0.30074992    0.52110891    0.11220000
opls_146-153    H    0.76790997    0.34004990    0.25430947    0.11250000
opls_146-154    H    0.84245985    0.38180988    0.27314067    0.11200000
opls_146-155    H    0.83263998    0.47933000    0.79570924    0.11260000
opls_146-156    H    0.75768997    0.43682991    0.78964070    0.11200000
opls_144-157    H    0.90062000    0.41308009    0.66859060    0.06550000
opls_146-158    H    0.04734007    0.47147996    0.60745068    0.11420000
opls_185-159    H    0.99270004    0.58742009    0.23366038    0.06140000
opls_185-160    H    0.99166000    0.60416014    0.67714003    0.06130000
opls_926-161    H    0.91506013    0.28744009    0.18517083    0.25250000
