#======================================================================
# Crystal Data Generated By AuToFF
#----------------------------------------------------------------------

data_AuToFF_phase_1

_cell_length_a                         36.2960
_cell_length_b                         36.2960
_cell_length_c                         3.4928
_cell_angle_alpha                      90.00
_cell_angle_beta                       90.00
_cell_angle_gamma                      120.00
_symmetry_space_group_name_H-M_alt     'P 1'
_symmetry_space_group_IT_number        1

loop_
_space_group_symop_operation_xyz
   'x, y, z'

loop_
   _atom_site_label
   _atom_site_type_symbol
   _atom_site_fract_x
   _atom_site_fract_y
   _atom_site_fract_z
   _atom_site_charge
opls_542-0    N    0.44642003    0.55366990    0.50000859    -0.23520000
opls_542-1    N    0.44633005    0.89274991    0.50000859    -0.23520000
opls_542-2    N    0.10725004    0.55357987    0.50000859    -0.23520000
opls_542-3    N    0.55357997    0.44633010    0.50000859    -0.23520000
opls_542-4    N    0.55366995    0.10725009    0.50000859    -0.23520000
opls_542-5    N    0.89274996    0.44642013    0.50000859    -0.23520000
opls_520-6    N    0.31198990    0.68780998    0.50000859    -0.46330000
opls_520-7    N    0.31218998    0.62417993    0.50000859    -0.46330000
opls_520-8    N    0.37582012    0.68801009    0.50000859    -0.46330000
opls_520-9    N    0.68801010    0.31219002    0.50000859    -0.46330000
opls_520-10    N    0.68781002    0.37582007    0.50000859    -0.46330000
opls_520-11    N    0.62417988    0.31198991    0.50000859    -0.46330000
opls_145-12    C    0.53953996    0.53953010    0.50000859    -0.08880000
opls_145-13    C    0.46047000    0.00000986    0.50000859    -0.08880000
opls_145-14    C    0.99999005    0.46046004    0.50000859    -0.08880000
opls_145-15    C    0.46046004    0.46046990    0.50000859    -0.08880000
opls_145-16    C    0.53952984    0.99998982    0.50000859    -0.08880000
opls_145-17    C    0.00000995    0.53953996    0.50000859    -0.08880000
opls_700-18    C    0.53823001    0.49997996    0.50000859    -0.06470000
opls_700-19    C    0.50001983    0.03824993    0.50000859    -0.06470000
opls_700-20    C    0.96175017    0.46177011    0.50000859    -0.06470000
opls_700-21    C    0.46176999    0.50002004    0.50000859    -0.06470000
opls_700-22    C    0.49998017    0.96175007    0.50000859    -0.06480000
opls_700-23    C    0.03824983    0.53822989    0.50000859    -0.06470000
opls_700-24    C    0.50000011    0.46177011    0.50000859    -0.06470000
opls_700-25    C    0.53823000    0.03822989    0.50000859    -0.06470000
opls_700-26    C    0.96176989    0.50000000    0.50000859    -0.06470000
opls_700-27    C    0.49999989    0.53822989    0.50000859    -0.06470000
opls_700-28    C    0.46176984    0.96176979    0.50000859    -0.06470000
opls_700-29    C    0.03823011    0.50000000    0.50000859    -0.06470000
opls_531-30    C    0.35509999    0.71040993    0.50000859    0.34930000
opls_531-31    C    0.28958990    0.64469005    0.50000859    0.34930000
opls_531-32    C    0.35531010    0.64490002    0.50000859    0.34930000
opls_531-33    C    0.64490001    0.28959007    0.50000859    0.34930000
opls_531-34    C    0.71041010    0.35530995    0.50000859    0.34930000
opls_531-35    C    0.64468990    0.35509998    0.50000859    0.34930000
opls_700-36    C    0.37762003    0.75546984    0.50000859    0.05460000
opls_700-37    C    0.24452988    0.62214991    0.50000859    0.05360000
opls_700-38    C    0.37784993    0.62237992    0.50000859    0.05460000
opls_700-39    C    0.62237981    0.24452984    0.50000859    0.05460000
opls_700-40    C    0.75547012    0.37785009    0.50000859    0.05360000
opls_700-41    C    0.62215007    0.37762008    0.50000859    0.05360000
opls_523-42    C    0.35650000    0.57745999    0.50000859    -0.17060000
opls_523-43    C    0.42254009    0.77902992    0.50000859    -0.17060000
opls_523-44    C    0.22096998    0.64349991    0.50000859    -0.17060000
opls_523-45    C    0.64349987    0.42252983    0.50000859    -0.17060000
opls_523-46    C    0.57746006    0.22095990    0.50000859    -0.17060000
opls_523-47    C    0.77903002    0.35650009    0.50000859    -0.17060000
opls_145-48    C    0.37903984    0.55521985    0.50000859    -0.17270000
opls_145-49    C    0.44477991    0.82380988    0.50000859    -0.17270000
opls_145-50    C    0.17619004    0.62096009    0.50000859    -0.17270000
opls_145-51    C    0.62096000    0.44477983    0.50000859    -0.17270000
opls_145-52    C    0.55521996    0.17617994    0.50000859    -0.17270000
opls_145-53    C    0.82381988    0.37903991    0.50000859    -0.17270000
opls_145-54    C    0.42429983    0.57580983    0.50000859    0.16520000
opls_145-55    C    0.42418995    0.84849010    0.50000859    0.16480000
opls_145-56    C    0.15150994    0.57570007    0.50000859    0.16520000
opls_145-57    C    0.57570001    0.42418985    0.50000859    0.16520000
opls_145-58    C    0.57581005    0.15150990    0.50000859    0.16440000
opls_145-59    C    0.84849006    0.42429993    0.50000859    0.16520000
opls_145-60    C    0.44492990    0.62106985    0.50000859    -0.17270000
opls_145-61    C    0.37892986    0.82385982    0.50000859    -0.17270000
opls_145-62    C    0.17614009    0.55507001    0.50000859    -0.17270000
opls_145-63    C    0.55506994    0.37892983    0.50000859    -0.17270000
opls_145-64    C    0.62106998    0.17613986    0.50000859    -0.17270000
opls_145-65    C    0.82385991    0.44492999    0.50000859    -0.17270000
opls_523-66    C    0.42274990    0.64365993    0.50000859    -0.19180000
opls_523-67    C    0.35633999    0.77909005    0.50000859    -0.19180000
opls_523-68    C    0.22091011    0.57725002    0.50000859    -0.19180000
opls_523-69    C    0.57725010    0.35634007    0.50000859    -0.19180000
opls_523-70    C    0.64366001    0.22090995    0.50000859    -0.19180000
opls_523-71    C    0.77908989    0.42274998    0.50000859    -0.19180000
opls_234-72    C    0.57026007    0.48966000    0.50000859    0.43120000
opls_234-73    C    0.51026985    0.42969994    0.50000859    0.43120000
opls_234-74    C    0.51033994    0.08059998    0.50000859    0.43130000
opls_234-75    C    0.57029991    0.08057007    0.50000859    0.43130000
opls_234-76    C    0.91939007    0.42974003    0.50000859    0.43130000
opls_234-77    C    0.91942996    0.48972999    0.50000859    0.43130000
opls_234-78    C    0.42973993    0.51034000    0.50000859    0.43130000
opls_234-79    C    0.48973015    0.57030006    0.50000859    0.43130000
opls_234-80    C    0.48965993    0.91938984    0.50000859    0.43130000
opls_234-81    C    0.42970009    0.91942993    0.50000859    0.43120000
opls_234-82    C    0.08060993    0.57025997    0.50000859    0.43120000
opls_234-83    C    0.08057004    0.51027001    0.50000859    0.43130000
opls_526-84    H    0.32393007    0.56031000    0.50000859    0.24550000
opls_526-85    H    0.43968997    0.76362999    0.50000859    0.24550000
opls_526-86    H    0.23637001    0.67606987    0.50000859    0.24550000
opls_526-87    H    0.67606993    0.43969000    0.50000859    0.24540000
opls_526-88    H    0.56031003    0.23637001    0.50000859    0.24550000
opls_526-89    H    0.76362999    0.32393013    0.50000859    0.24550000
opls_146-90    H    0.36067996    0.52310005    0.50000859    0.24610000
opls_146-91    H    0.47689986    0.83756982    0.50000859    0.24610000
opls_146-92    H    0.16242997    0.63931994    0.50000859    0.24610000
opls_146-93    H    0.63932004    0.47689995    0.50000859    0.24600000
opls_146-94    H    0.52309999    0.16242986    0.50000859    0.24600000
opls_146-95    H    0.83757003    0.36068006    0.50000859    0.24590000
opls_146-96    H    0.47705997    0.63945992    0.50000859    0.24580000
opls_146-97    H    0.36054016    0.83760005    0.50000859    0.24580000
opls_146-98    H    0.16240015    0.52294003    0.50000859    0.24580000
opls_146-99    H    0.52294003    0.36054008    0.50000859    0.24580000
opls_146-100    H    0.63945984    0.16239995    0.50000859    0.24580000
opls_146-101    H    0.83759985    0.47705997    0.50000859    0.24580000
opls_526-102    H    0.44003985    0.67620985    0.50000859    0.24540000
opls_526-103    H    0.32379019    0.76383010    0.50000859    0.24550000
opls_526-104    H    0.23616997    0.55996006    0.50000859    0.24550000
opls_526-105    H    0.55995999    0.32378983    0.50000859    0.24550000
opls_526-106    H    0.67621009    0.23616990    0.50000859    0.24550000
opls_526-107    H    0.76383003    0.44003994    0.50000859    0.24550000
opls_146-108    H    0.56768999    0.56767004    0.50000859    0.24550000
opls_146-109    H    0.43233011    0.00002004    0.50000859    0.24550000
opls_146-110    H    0.99997990    0.43230992    0.50000859    0.24550000
opls_146-111    H    0.43231001    0.43232996    0.50000859    0.24550000
opls_146-112    H    0.56766989    0.99997996    0.50000859    0.24550000
opls_146-113    H    0.00002010    0.56769008    0.50000859    0.24550000
opls_236-114    O    0.60829001    0.51888000    0.50000859    -0.51690000
opls_236-115    O    0.48103012    0.39168002    0.50000859    -0.51990000
opls_236-116    O    0.48112007    0.08941007    0.50000859    -0.51690000
opls_236-117    O    0.60832000    0.08934994    0.50000859    -0.51690000
opls_236-118    O    0.91058992    0.39170993    0.50000859    -0.51660000
opls_236-119    O    0.91064988    0.51897003    0.50000859    -0.52000000
opls_236-120    O    0.39170999    0.48112000    0.50000859    -0.51690000
opls_236-121    O    0.51896988    0.60831998    0.50000859    -0.51990000
opls_236-122    O    0.51887993    0.91058993    0.50000859    -0.51550000
opls_236-123    O    0.39168000    0.91065006    0.50000859    -0.51700000
opls_236-124    O    0.08941008    0.60829007    0.50000859    -0.51660000
opls_236-125    O    0.08935014    0.48102010    0.50000859    -0.51520000
