#======================================================================
# Crystal Data Generated By AuToFF
#----------------------------------------------------------------------

data_AuToFF_phase_1

_cell_length_a                         45.0000
_cell_length_b                         45.0000
_cell_length_c                         7.1000
_cell_angle_alpha                      90.00
_cell_angle_beta                       90.00
_cell_angle_gamma                      120.00
_symmetry_space_group_name_H-M_alt     'P 1'
_symmetry_space_group_IT_number        1

loop_
_space_group_symop_operation_xyz
   'x, y, z'

loop_
   _atom_site_label
   _atom_site_type_symbol
   _atom_site_fract_x
   _atom_site_fract_y
   _atom_site_fract_z
   _atom_site_charge
opls_531-0    C    0.70176012    0.35103002    0.26752958    0.34680000
opls_700-1    C    0.73973014    0.37015006    0.26994930    0.00140000
opls_523-2    C    0.75803007    0.35332993    0.31496056    -0.12570000
opls_145-3    C    0.79385988    0.37142999    0.31990986    -0.12240000
opls_700-4    C    0.81228005    0.40658010    0.27427042    0.11270000
opls_145-5    C    0.79395001    0.42346003    0.23299014    -0.12420000
opls_523-6    C    0.75808014    0.40549006    0.23050986    -0.12690000
opls_142-7    C    0.85036989    0.42725001    0.28087042    -0.09450000
opls_141-8    C    0.87242996    0.41673993    0.22698028    -0.00130000
opls_700-9    C    0.91018013    0.44045004    0.23605070    0.03000000
opls_523-10    C    0.93217994    0.42771010    0.28000000    -0.11500000
opls_522-11    C    0.96762004    0.44952008    0.28270000    -0.16540000
opls_521-12    C    0.98138012    0.48443002    0.23988028    0.17120000
opls_521-13    C    0.92502010    0.47570997    0.19646056    0.07220000
opls_521-14    C    0.01884005    0.50844009    0.23746056    0.17120000
opls_521-15    C    0.06521007    0.56568014    0.27548028    0.07210000
opls_700-16    C    0.08939002    0.55550004    0.23384930    0.03250000
opls_523-17    C    0.07713013    0.52085004    0.18896056    -0.11500000
opls_522-18    C    0.04205003    0.49732007    0.19134930    -0.16580000
opls_141-19    C    0.12680998    0.58097017    0.23075070    -0.00110000
opls_142-20    C    0.14977998    0.57165995    0.28499014    -0.12750000
opls_700-21    C    0.18777000    0.59286000    0.27495070    0.11330000
opls_145-22    C    0.20632998    0.57617996    0.23428028    -0.12320000
opls_523-23    C    0.24216003    0.59432005    0.23141972    -0.12420000
opls_700-24    C    0.26034016    0.62971009    0.26966056    0.00180000
opls_523-25    C    0.24184008    0.64644016    0.31217042    -0.12740000
opls_145-26    C    0.20598010    0.62816997    0.31678028    -0.12130000
opls_531-27    C    0.29830986    0.64892995    0.26758028    0.34680000
opls_423-28    C    0.13736013    0.61509004    0.16195070    0.23920000
opls_423-29    C    0.86051999    0.38249997    0.15526056    0.23920000
opls_531-30    C    0.64920995    0.35087991    0.26718028    0.34690000
opls_700-31    C    0.63013992    0.36979005    0.26962958    0.00140000
opls_523-32    C    0.64697996    0.40491015    0.31462958    -0.12570000
opls_145-33    C    0.62889987    0.42268997    0.32020986    -0.12240000
opls_700-34    C    0.59374996    0.40597991    0.27523944    0.11270000
opls_145-35    C    0.57686989    0.37077001    0.23332958    -0.12450000
opls_523-36    C    0.59481004    0.35284008    0.23025070    -0.12700000
opls_142-37    C    0.57306988    0.42338998    0.28268028    -0.09390000
opls_141-38    C    0.58346998    0.45593996    0.22832958    -0.00120000
opls_700-39    C    0.55968012    0.46989003    0.23665070    0.03000000
opls_523-40    C    0.57227994    0.50463009    0.28039014    -0.11500000
opls_522-41    C    0.55041007    0.51820013    0.28180000    -0.16580000
opls_521-42    C    0.51556992    0.49697007    0.23810000    0.14710000
opls_521-43    C    0.52448000    0.44939999    0.19602958    0.07220000
opls_521-44    C    0.49152010    0.51036998    0.23498028    0.17160000
opls_521-45    C    0.43427993    0.49943009    0.27337042    0.07230000
opls_700-46    C    0.44439018    0.53379013    0.23154930    0.03240000
opls_523-47    C    0.47901014    0.55621006    0.18625070    -0.11500000
opls_522-48    C    0.50254999    0.54467999    0.18830986    -0.16580000
opls_141-49    C    0.41893000    0.54574000    0.22911972    -0.00110000
opls_142-50    C    0.42827004    0.57806007    0.28330986    -0.09430000
opls_700-51    C    0.40708008    0.59486995    0.27350000    0.11330000
opls_145-52    C    0.42371995    0.63011013    0.23261972    -0.12130000
opls_523-53    C    0.40557006    0.64778013    0.22947042    -0.12240000
opls_700-54    C    0.37020987    0.63056996    0.26793944    0.00140000
opls_523-55    C    0.35352002    0.59534004    0.31063944    -0.12740000
opls_145-56    C    0.37181005    0.57776011    0.31569014    -0.12110000
opls_531-57    C    0.35098999    0.64931998    0.26653944    0.34690000
opls_423-58    C    0.38478988    0.52214998    0.16106056    0.23910000
opls_423-59    C    0.61765994    0.47831010    0.15647042    0.23910000
opls_531-60    C    0.64935004    0.29844008    0.26665070    0.34570000
opls_700-61    C    0.63039984    0.26042990    0.26871972    0.00180000
opls_523-62    C    0.59531000    0.24220000    0.31393944    -0.12570000
opls_145-63    C    0.57750017    0.20633012    0.31959014    -0.12220000
opls_700-64    C    0.59415001    0.18784003    0.27430000    0.11270000
opls_145-65    C    0.62931987    0.20610996    0.23200986    -0.12420000
opls_523-66    C    0.64728016    0.24199010    0.22891972    -0.12700000
opls_142-67    C    0.57666001    0.14972002    0.28186056    -0.09390000
opls_141-68    C    0.54411993    0.12763009    0.22763944    -0.00110000
opls_700-69    C    0.53013004    0.08986009    0.23620986    0.03170000
opls_523-70    C    0.49542005    0.06774988    0.28046056    -0.11700000
opls_522-71    C    0.48186003    0.03230006    0.28210000    -0.16380000
opls_521-72    C    0.50305997    0.01863995    0.23819014    0.17130000
opls_521-73    C    0.55057986    0.07510994    0.19539014    0.07220000
opls_521-74    C    0.48971010    0.98120019    0.23520000    0.17130000
opls_521-75    C    0.50065001    0.93488002    0.27349014    0.07170000
opls_700-76    C    0.46630012    0.91063002    0.23202958    0.03810000
opls_523-77    C    0.44390005    0.92286010    0.18676056    -0.11500000
opls_522-78    C    0.45541007    0.95792014    0.18890000    -0.16540000
opls_141-79    C    0.45434011    0.87319001    0.22980986    0.00340000
opls_142-80    C    0.42202009    0.85024995    0.28400000    -0.09450000
opls_700-81    C    0.40515012    0.81221001    0.27437042    0.11330000
opls_145-82    C    0.36990007    0.79368014    0.23421972    -0.12420000
opls_523-83    C    0.35217001    0.75782002    0.23116056    -0.12420000
opls_700-84    C    0.36935007    0.73962014    0.26888028    0.00140000
opls_523-85    C    0.40458009    0.75808996    0.31102958    -0.12700000
opls_145-86    C    0.42220016    0.79397010    0.31599014    -0.12110000
opls_531-87    C    0.35057998    0.70161997    0.26706056    0.34680000
opls_423-88    C    0.47789006    0.86260012    0.16162958    0.23910000
opls_423-89    C    0.52178006    0.13950990    0.15591972    0.23910000
opls_531-90    C    0.70168995    0.35117012    0.76740986    0.34700000
opls_700-91    C    0.73965006    0.37058013    0.76903944    -0.00140000
opls_523-92    C    0.75833998    0.35405995    0.81156056    -0.12520000
opls_145-93    C    0.79418990    0.37251002    0.81580986    -0.12110000
opls_700-94    C    0.81221010    0.40780998    0.77349014    0.11320000
opls_145-95    C    0.79346007    0.42430014    0.73320000    -0.12320000
opls_523-96    C    0.75762018    0.40595015    0.73050986    -0.12420000
opls_142-97    C    0.85020996    0.42917015    0.78273944    -0.09430000
opls_141-98    C    0.87323009    0.41988995    0.72890986    0.00360000
opls_700-99    C    0.91064016    0.44539010    0.73233944    0.03210000
opls_521-100    C    0.93480011    0.43521000    0.77470986    0.07230000
opls_521-101    C    0.98121003    0.49246006    0.73729014    0.14700000
opls_522-102    C    0.95802994    0.50359009    0.69068028    -0.16520000
opls_523-103    C    0.92295006    0.48006012    0.68746056    -0.11620000
opls_521-104    C    0.01866004    0.51640008    0.74010986    0.14710000
opls_522-105    C    0.03250001    0.55130001    0.78357042    -0.16520000
opls_523-106    C    0.06796007    0.57300992    0.78172958    -0.11500000
opls_700-107    C    0.08987996    0.56017992    0.73754930    0.04230000
opls_521-108    C    0.07496011    0.52495000    0.69719014    0.07330000
opls_141-109    C    0.12764998    0.58379996    0.72880000    -0.00130000
opls_142-110    C    0.14962992    0.57319006    0.78259014    -0.09430000
opls_700-111    C    0.18772018    0.59375014    0.77545070    0.11260000
opls_145-112    C    0.20595007    0.57676014    0.73383944    -0.12570000
opls_523-113    C    0.24181001    0.59462002    0.73097042    -0.12740000
opls_700-114    C    0.26029013    0.62999004    0.77013944    0.00130000
opls_523-115    C    0.24210989    0.64693001    0.81505070    -0.12350000
opls_145-116    C    0.20629002    0.62894003    0.82059014    -0.12220000
opls_531-117    C    0.29827000    0.64900000    0.76757042    0.34570000
opls_423-118    C    0.13965998    0.61805018    0.65686056    0.23910000
opls_423-119    C    0.86275004    0.38576008    0.66031972    0.23910000
opls_531-120    C    0.64887017    0.35047012    0.76690986    0.34690000
opls_700-121    C    0.62949991    0.36907003    0.76881972    -0.00140000
opls_523-122    C    0.64607986    0.40428994    0.81131972    -0.12450000
opls_145-123    C    0.62767001    0.42172002    0.81670000    -0.11970000
opls_700-124    C    0.59237993    0.40449009    0.77506056    0.11330000
opls_145-125    C    0.57581007    0.36922015    0.73479014    -0.12220000
opls_523-126    C    0.59412011    0.35168999    0.73114930    -0.12350000
opls_142-127    C    0.57109007    0.42120015    0.78505070    -0.09450000
opls_141-128    C    0.58034986    0.45348994    0.73068028    0.00360000
opls_700-129    C    0.55486013    0.46541004    0.73341972    0.03250000
opls_521-130    C    0.56498993    0.49977009    0.77505070    0.07170000
opls_521-131    C    0.50777999    0.48887998    0.73642958    0.17120000
opls_522-132    C    0.49671009    0.45454996    0.69031972    -0.16430000
opls_523-133    C    0.52024018    0.44301014    0.68817042    -0.11500000
opls_521-134    C    0.48378997    0.50233994    0.73874930    0.17160000
opls_522-135    C    0.44890985    0.48118993    0.78192958    -0.16520000
opls_523-136    C    0.42712013    0.49485004    0.77981972    -0.11700000
opls_700-137    C    0.43985006    0.52962012    0.73587042    0.03160000
opls_521-138    C    0.47506993    0.55001008    0.69568028    0.07190000
opls_141-139    C    0.41616012    0.54369002    0.72710986    -0.00120000
opls_142-140    C    0.42666990    0.57625001    0.78133944    -0.12760000
opls_700-141    C    0.40607018    0.59375014    0.77421972    0.11270000
opls_145-142    C    0.42302015    0.62899007    0.73298028    -0.12420000
opls_523-143    C    0.40515014    0.64699005    0.73033944    -0.12700000
opls_700-144    C    0.36979994    0.63007010    0.76945070    0.00010000
opls_523-145    C    0.35287988    0.59490998    0.81386056    -0.12570000
opls_145-146    C    0.37089006    0.57708012    0.81901972    -0.12310000
opls_531-147    C    0.35078991    0.64905004    0.76732958    0.34580000
opls_423-148    C    0.38196996    0.52137992    0.65497042    0.23910000
opls_423-149    C    0.61446989    0.47713000    0.66230986    0.23910000
opls_531-150    C    0.64957011    0.29832999    0.76647042    0.34700000
opls_700-151    C    0.63093004    0.26034009    0.76800986    -0.00140000
opls_523-152    C    0.59571008    0.24176994    0.81009014    -0.12700000
opls_145-153    C    0.57819014    0.20589005    0.81514930    -0.12110000
opls_700-154    C    0.59537010    0.18776998    0.77381972    0.11320000
opls_145-155    C    0.63062996    0.20639992    0.73372958    -0.12420000
opls_523-156    C    0.64823002    0.24226004    0.73028028    -0.12220000
opls_142-157    C    0.57860002    0.14974004    0.78399014    -0.09440000
opls_141-158    C    0.54632997    0.12673994    0.72962958    0.00340000
opls_700-159    C    0.53438996    0.08929993    0.73270000    0.03210000
opls_521-160    C    0.50005998    0.06507995    0.77459014    0.07170000
opls_521-161    C    0.51095012    0.01873001    0.73608028    0.17120000
opls_522-162    C    0.54525002    0.04198004    0.68970986    -0.16430000
opls_523-163    C    0.55678005    0.07706010    0.68751972    -0.11500000
opls_521-164    C    0.49753000    0.98127999    0.73830986    0.17130000
opls_522-165    C    0.51863003    0.96752007    0.78214930    -0.16520000
opls_523-166    C    0.50497999    0.93205998    0.78030000    -0.11520000
opls_700-167    C    0.47026005    0.91004010    0.73600000    0.03190000
opls_521-168    C    0.44989992    0.92489006    0.69526056    0.07190000
opls_141-169    C    0.45618004    0.87226009    0.72769014    -0.00120000
opls_142-170    C    0.42363987    0.85026997    0.78197042    -0.09430000
opls_700-171    C    0.40608998    0.81213996    0.77497042    0.11260000
opls_145-172    C    0.37089014    0.79391006    0.73330000    -0.12570000
opls_523-173    C    0.35286008    0.75802017    0.73055070    -0.12740000
opls_700-174    C    0.36972003    0.73952007    0.76988028    0.00180000
opls_523-175    C    0.40482008    0.75770994    0.81479014    -0.12600000
opls_145-176    C    0.42268992    0.79357006    0.82016056    -0.12350000
opls_531-177    C    0.35072997    0.70153016    0.76751972    0.34580000
opls_423-178    C    0.47844021    0.86027019    0.65602958    0.23910000
opls_423-179    C    0.52273012    0.13725003    0.66116056    0.23910000
opls_520-180    N    0.68408007    0.36820991    0.26762958    -0.44820000
opls_520-181    N    0.95969998    0.49647996    0.19983944    -0.29110000
opls_520-182    N    0.03108000    0.54225999    0.27590000    -0.29110000
opls_520-183    N    0.31612007    0.63186014    0.26710986    -0.45580000
opls_753-184    N    0.14553999    0.64237998    0.10735070    -0.28790000
opls_753-185    N    0.85124998    0.35509995    0.09871972    -0.28790000
opls_520-186    N    0.63204000    0.31599999    0.26678028    -0.45570000
opls_520-187    N    0.50364000    0.46325999    0.19830986    -0.29110000
opls_520-188    N    0.45773018    0.48875014    0.27374930    -0.29090000
opls_520-189    N    0.36803008    0.68420015    0.26653944    -0.45580000
opls_753-190    N    0.35746986    0.50302993    0.10719014    -0.28790000
opls_753-191    N    0.64502998    0.49647996    0.09977042    -0.28780000
opls_520-192    N    0.68421993    0.31613009    0.26712958    -0.45600000
opls_520-193    N    0.53674996    0.04041991    0.19798028    -0.29110000
opls_520-194    N    0.51133008    0.96902015    0.27378028    -0.29110000
opls_520-195    N    0.31571995    0.68381012    0.26763944    -0.45400000
opls_753-196    N    0.49698020    0.85437018    0.10758028    -0.28790000
opls_753-197    N    0.50360992    0.14873006    0.09960000    -0.28790000
opls_520-198    N    0.68371992    0.36807006    0.76747042    -0.47080000
opls_520-199    N    0.96893997    0.45863016    0.77566056    -0.29110000
opls_520-200    N    0.04027015    0.50427008    0.70011972    -0.29100000
opls_520-201    N    0.31591003    0.63176007    0.76749014    -0.44930000
opls_753-202    N    0.14897009    0.64542018    0.59994930    -0.29980000
opls_753-203    N    0.85462007    0.35848015    0.60593944    -0.28790000
opls_520-204    N    0.63197998    0.31559995    0.76649014    -0.44880000
opls_520-205    N    0.54156992    0.51049007    0.77508028    -0.29110000
opls_520-206    N    0.49583013    0.53609004    0.69870000    -0.29110000
opls_520-207    N    0.36800997    0.68391995    0.76738028    -0.44940000
opls_753-208    N    0.35466005    0.50326010    0.59771972    -0.29980000
opls_753-209    N    0.64178004    0.49630008    0.60829014    -0.28790000
opls_520-210    N    0.68443009    0.31628995    0.76702958    -0.45400000
opls_520-211    N    0.48935014    0.03093007    0.77480000    -0.29110000
opls_520-212    N    0.46381004    0.95958009    0.69809014    -0.29110000
opls_520-213    N    0.31586998    0.68389018    0.76768028    -0.45530000
opls_753-214    N    0.49650999    0.85097998    0.59935070    -0.29980000
opls_753-215    N    0.50356995    0.14539990    0.60706056    -0.28790000
opls_526-216    H    0.74462985    0.32630993    0.35102958    0.11750000
opls_526-217    H    0.25509999    0.67355997    0.34614930    0.12020000
opls_146-218    H    0.80680999    0.35791999    0.36491972    0.12520000
opls_146-219    H    0.80746996    0.45067991    0.20136056    0.11920000
opls_526-220    H    0.74475000    0.41926000    0.19622958    0.12220000
opls_526-221    H    0.92194998    0.40085997    0.31411972    0.12190000
opls_525-222    H    0.98392005    0.43916011    0.32093944    0.12060000
opls_524-223    H    0.90924996    0.48669015    0.15809014    0.11460000
opls_524-224    H    0.07343000    0.59215999    0.30931972    0.09950000
opls_526-225    H    0.09452996    0.51197014    0.14739014    0.11960000
opls_144-226    H    0.14016986    0.54564993    0.33422958    0.11630000
opls_146-227    H    0.19298013    0.54891004    0.20388028    0.11680000
opls_526-228    H    0.25558997    0.58061016    0.19822958    0.12190000
opls_146-229    H    0.19290989    0.64170999    0.35849014    0.11790000
opls_144-230    H    0.86083007    0.45342015    0.32977042    0.12230000
opls_525-231    H    0.03329002    0.47096005    0.15212958    0.11910000
opls_526-232    H    0.67398999    0.41853998    0.35019014    0.12100000
opls_526-233    H    0.32643002    0.58148004    0.34470000    0.11880000
opls_146-234    H    0.64244004    0.44916007    0.36493944    0.11730000
opls_146-235    H    0.54967995    0.35711991    0.20135070    0.11750000
opls_526-236    H    0.58103001    0.32574002    0.19558028    0.11680000
opls_526-237    H    0.59907006    0.52130012    0.31540000    0.11600000
opls_525-238    H    0.56068007    0.54490015    0.31947042    0.11600000
opls_524-239    H    0.51360986    0.42264994    0.15772958    0.12750000
opls_524-240    H    0.40784996    0.48117992    0.30789014    0.10950000
opls_526-241    H    0.48783990    0.58249002    0.14460000    0.11810000
opls_144-242    H    0.45431019    0.59445015    0.33226056    0.11600000
opls_146-243    H    0.45096997    0.64403017    0.20213944    0.11850000
opls_526-244    H    0.41923986    0.67490995    0.19603944    0.12190000
opls_146-245    H    0.35832996    0.55117992    0.35799014    0.12810000
opls_144-246    H    0.54693996    0.40767014    0.33194930    0.11610000
opls_525-247    H    0.52886997    0.56227993    0.14870000    0.12360000
opls_526-248    H    0.58173997    0.25563994    0.34979014    0.12070000
opls_526-249    H    0.41841007    0.74482014    0.34470000    0.11950000
opls_146-250    H    0.55104992    0.19343006    0.36469014    0.12640000
opls_146-251    H    0.64291006    0.19250989    0.19978028    0.11990000
opls_526-252    H    0.67433985    0.25526993    0.19393944    0.11810000
opls_526-253    H    0.47878998    0.07791997    0.31551972    0.11810000
opls_525-254    H    0.45520987    0.01588996    0.32030000    0.12090000
opls_524-255    H    0.57729005    0.09096988    0.15664930    0.10280000
opls_524-256    H    0.51891995    0.92671012    0.30766056    0.10950000
opls_526-257    H    0.41764000    0.90540000    0.14508028    0.12070000
opls_144-258    H    0.40566987    0.85994995    0.33288028    0.11600000
opls_146-259    H    0.35599992    0.80707005    0.20430986    0.11540000
opls_526-260    H    0.32502005    0.74442010    0.19836056    0.11730000
opls_146-261    H    0.44880001    0.80702002    0.35787042    0.11800000
opls_144-262    H    0.59231987    0.13924997    0.33130986    0.11730000
opls_525-263    H    0.43778999    0.96665019    0.14968028    0.12130000
opls_526-264    H    0.74523006    0.32696991    0.84578028    0.11810000
opls_526-265    H    0.25560001    0.67396001    0.85073944    0.11730000
opls_146-266    H    0.80740017    0.35913012    0.85782958    0.11720000
opls_146-267    H    0.80665014    0.45157006    0.70297042    0.11830000
opls_526-268    H    0.74402996    0.41949992    0.69732958    0.12190000
opls_524-269    H    0.92657007    0.40874991    0.80907042    0.09860000
opls_526-270    H    0.90555011    0.48891000    0.64522958    0.11870000
opls_526-271    H    0.07826002    0.59984004    0.81678028    0.11850000
opls_524-272    H    0.09067014    0.51395007    0.65836056    0.09100000
opls_144-273    H    0.13911008    0.54700016    0.83131972    0.11850000
opls_146-274    H    0.19232988    0.54952999    0.70230000    0.11540000
opls_526-275    H    0.25504000    0.58074000    0.69661972    0.11830000
opls_146-276    H    0.19344005    0.64254010    0.86580000    0.12160000
opls_144-277    H    0.85981986    0.45522995    0.83142958    0.12220000
opls_526-278    H    0.67317990    0.41825002    0.84481972    0.11910000
opls_526-279    H    0.32584996    0.58131992    0.84928028    0.12070000
opls_146-280    H    0.64108998    0.44831996    0.85910986    0.12640000
opls_146-281    H    0.54854011    0.35517001    0.70517042    0.11810000
opls_526-282    H    0.58056007    0.32454991    0.69780986    0.12220000
opls_524-283    H    0.59142989    0.51803001    0.80927042    0.10960000
opls_526-284    H    0.51139996    0.41671991    0.64658028    0.11750000
opls_526-285    H    0.40030003    0.47826007    0.81442958    0.11870000
opls_524-286    H    0.48602006    0.57674012    0.65707042    0.11830000
opls_144-287    H    0.45279004    0.59192007    0.83057042    0.11910000
opls_146-288    H    0.45021996    0.64261015    0.70138028    0.11810000
opls_526-289    H    0.41900995    0.67411012    0.69627042    0.11920000
opls_146-290    H    0.35730000    0.55060001    0.86373944    0.12350000
opls_144-291    H    0.54505992    0.40479006    0.83418028    0.11810000
opls_526-292    H    0.58179009    0.25496996    0.84347042    0.11600000
opls_526-293    H    0.41836008    0.74420995    0.85051972    0.11850000
opls_146-294    H    0.55159005    0.19278009    0.85700986    0.11470000
opls_146-295    H    0.64462004    0.19310007    0.70421972    0.11990000
opls_526-296    H    0.67535002    0.25576003    0.69720000    0.11910000
opls_524-297    H    0.48181017    0.07327012    0.80895070    0.09810000
opls_526-298    H    0.58302997    0.09451994    0.64562958    0.11630000
opls_526-299    H    0.52153994    0.92183010    0.81570986    0.11600000
opls_524-300    H    0.42321009    0.90910017    0.65632958    0.12490000
opls_144-301    H    0.40798991    0.86077005    0.83097042    0.11620000
opls_146-302    H    0.35730018    0.80753014    0.70165070    0.11880000
opls_526-303    H    0.32576995    0.74479012    0.69619014    0.12200000
opls_146-304    H    0.44912004    0.80642008    0.86544930    0.12340000
opls_144-305    H    0.59497004    0.14010008    0.83342958    0.11600000
opls_525-306    H    0.96682995    0.52997013    0.65159014    0.12070000
opls_525-307    H    0.01621012    0.56171002    0.82154930    0.12070000
opls_525-308    H    0.47037011    0.43692999    0.65110986    0.12050000
opls_525-309    H    0.43855996    0.45449992    0.82010000    0.11600000
opls_525-310    H    0.56283988    0.03322997    0.65029014    0.12090000
opls_525-311    H    0.54527017    0.98387012    0.82100986    0.11950000
