#======================================================================
# Crystal Data Generated By AuToFF
#----------------------------------------------------------------------

data_AuToFF_phase_1

_cell_length_a                         22.7020
_cell_length_b                         22.6423
_cell_length_c                         6.6170
_cell_angle_alpha                      85.41
_cell_angle_beta                       95.44
_cell_angle_gamma                      120.60
_symmetry_space_group_name_H-M_alt     'P 1'
_symmetry_space_group_IT_number        1

loop_
_space_group_symop_operation_xyz
   'x, y, z'

loop_
   _atom_site_label
   _atom_site_type_symbol
   _atom_site_fract_x
   _atom_site_fract_y
   _atom_site_fract_z
   _atom_site_charge
opls_521-0    C    0.96279991    0.94430974    0.98560000    0.34330000
opls_521-1    C    0.05952999    0.05321987    0.98975031    0.01470000
opls_522-2    C    0.01914962    0.08451965    0.99282051    0.20750000
opls_523-3    C    0.94721982    0.04170985    0.99371984    -0.18040000
opls_522-4    C    0.91848973    0.97105961    0.98983083    -0.19410000
opls_142-5    C    0.11174985    0.20550001    0.99591957    -0.04530000
opls_142-6    C    0.87214960    0.82397972    0.97612964    -0.04530000
opls_700-7    C    0.84973962    0.75456978    0.97301083    -0.13830000
opls_280-8    C    0.89765990    0.72863987    0.97504952    0.34370000
opls_280-9    C    0.77465997    0.70798007    0.97073970    0.36690000
opls_700-10    C    0.86864974    0.65351969    0.97749079    -0.11630000
opls_700-11    C    0.74797957    0.63340978    0.98216977    -0.13830000
opls_280-12    C    0.79416018    0.60532007    0.98475080    0.31060000
opls_700-13    C    0.13070996    0.27450993    0.99603047    -0.11980000
opls_280-14    C    0.07968962    0.29644974    0.99347070    0.18810000
opls_280-15    C    0.20468964    0.32443976    0.99622948    0.34330000
opls_700-16    C    0.10480986    0.37087999    0.99375934    -0.17500000
opls_700-17    C    0.22754999    0.39814010    0.99658040    -0.10390000
opls_280-18    C    0.17836972    0.42171985    0.99955033    0.34390000
opls_142-19    C    0.29692974    0.44821964    0.99514936    0.07990000
opls_142-20    C    0.91498991    0.63064993    0.97440996    0.08870000
opls_142-21    C    0.67857996    0.58639002    0.99637987    0.08870000
opls_142-22    C    0.05522975    0.39008989    0.98858968    0.08900000
opls_916-23    C    0.93768998    0.53563996    0.97317034    0.20880000
opls_145-24    C    0.90922998    0.46309003    0.96958059    -0.14570000
opls_145-25    C    0.00992000    0.57921998    0.97648968    -0.17570000
opls_145-26    C    0.95388958    0.43718967    0.97389041    -0.20470000
opls_145-27    C    0.05325963    0.55258978    0.97892943    -0.18060000
opls_916-28    C    0.02558958    0.48078983    0.97928946    0.23450000
opls_916-29    C    0.41669986    0.47632001    0.00020053    0.23140000
opls_145-30    C    0.45911978    0.44898965    0.97422007    -0.17640000
opls_145-31    C    0.44700995    0.54672971    0.03612988    -0.20530000
opls_145-32    C    0.52982978    0.49184987    0.97576960    -0.17620000
opls_145-33    C    0.51833994    0.59052985    0.04117041    -0.14580000
opls_916-34    C    0.56071974    0.56303974    0.00626952    0.21020000
opls_522-35    C    0.01065003    0.88682984    0.48233991    0.22040000
opls_521-36    C    0.08203993    0.93483996    0.48201937    0.01420000
opls_521-37    C    0.06516010    0.02711989    0.49025011    0.34170000
opls_522-38    C    0.99317967    0.98342963    0.49007997    -0.19360000
opls_523-39    C    0.96573002    0.91267970    0.48649022    -0.19110000
opls_142-40    C    0.16230979    0.14439983    0.49505973    0.09350000
opls_142-41    C    0.92368993    0.76380973    0.47957962    0.09480000
opls_700-42    C    0.90676008    0.69534009    0.47820024    -0.11530000
opls_280-43    C    0.95933977    0.67548963    0.47686946    0.29390000
opls_280-44    C    0.83319009    0.64342995    0.48228067    0.16520000
opls_700-45    C    0.93635990    0.60132971    0.47380079    -0.12020000
opls_700-46    C    0.81236991    0.57013011    0.48235966    -0.17500000
opls_280-47    C    0.86305015    0.54881013    0.46991936    0.34500000
opls_700-48    C    0.18914984    0.21502017    0.49809955    -0.11620000
opls_280-49    C    0.14426015    0.24450001    0.49886975    0.29070000
opls_280-50    C    0.26465989    0.25955981    0.49845958    0.32780000
opls_700-51    C    0.17598993    0.31998973    0.49933006    -0.12150000
opls_700-52    C    0.29475976    0.33498979    0.49783066    -0.12020000
opls_280-53    C    0.25105993    0.36593014    0.50042992    0.21600000
opls_142-54    C    0.36513987    0.37980998    0.49483946    0.09340000
opls_142-55    C    0.98749988    0.58424968    0.47590025    0.09350000
opls_142-56    C    0.74361975    0.51837996    0.48903024    0.09440000
opls_142-57    C    0.13112982    0.34495001    0.49732022    0.09360000
opls_916-58    C    0.02006983    0.49501003    0.48175960    0.22560000
opls_145-59    C    0.09168995    0.53873984    0.47918009    -0.20460000
opls_145-60    C    0.99304965    0.42324979    0.48693989    -0.17620000
opls_145-61    C    0.03671969    0.39684978    0.49210043    -0.18480000
opls_916-62    C    0.10888000    0.44049004    0.49191966    0.21870000
opls_521-63    C    0.48158969    0.39985979    0.49574031    0.34120000
opls_522-64    C    0.52364997    0.37003012    0.50909969    -0.19020000
opls_523-65    C    0.59445992    0.41273984    0.51098951    -0.17880000
opls_521-66    C    0.57601004    0.50976009    0.48776934    0.01460000
opls_522-67    C    0.62215988    0.48461985    0.49857960    0.22040000
opls_145-68    C    0.13663007    0.51309008    0.48290048    -0.14570000
opls_524-69    H    0.11612957    0.08431976    0.99018023    0.07170000
opls_526-70    H    0.91434964    0.06420966    0.99766051    0.08420000
opls_525-71    H    0.86260993    0.93781000    0.99131048    0.10130000
opls_910-72    H    0.97472974    0.85804961    0.97986978    0.28520000
opls_910-73    H    0.01084988    0.17289971    0.99565980    0.28550000
opls_144-74    H    0.15221991    0.19202987    0.99608060    0.04230000
opls_144-75    H    0.83274969    0.83890988    0.97550071    0.06630000
opls_144-76    H    0.31200950    0.50295960    0.99241945    0.06790000
opls_144-77    H    0.97003954    0.66957966    0.97080047    0.06530000
opls_144-78    H    0.66163988    0.53106992    0.00806971    0.04720000
opls_144-79    H    0.00072973    0.34918992    0.98633071    0.06590000
opls_910-80    H    0.32733974    0.37856010    0.98922013    0.28560000
opls_910-81    H    0.84159970    0.53024962    0.97449048    0.28550000
opls_146-82    H    0.03313959    0.63519971    0.97744066    0.10130000
opls_146-83    H    0.93193975    0.38132961    0.97252014    0.06880000
opls_146-84    H    0.10909009    0.58747997    0.98215002    0.11930000
opls_146-85    H    0.43624956    0.39382962    0.95046061    0.08420000
opls_146-86    H    0.41452987    0.56797996    0.06336060    0.11350000
opls_146-87    H    0.56133955    0.46926972    0.95135994    0.06470000
opls_910-88    H    0.65320003    0.65981974    0.99437004    0.28550000
opls_910-89    H    0.12373978    0.49223971    0.98541011    0.28530000
opls_796-90    H    0.56943007    0.72778989    0.79330937    0.40540000
opls_796-91    H    0.80639009    0.41666004    0.29110965    0.40660000
opls_525-92    H    0.95923981    0.00472000    0.49340994    0.10540000
opls_526-93    H    0.90984998    0.87839008    0.48657074    0.10770000
opls_910-94    H    0.02588966    0.80240978    0.47590936    0.28520000
opls_910-95    H    0.06243957    0.11937970    0.49598945    0.28520000
opls_144-96    H    0.19692965    0.12347982    0.49304990    0.04300000
opls_144-97    H    0.88154976    0.77478962    0.48237941    0.05290000
opls_144-98    H    0.38639999    0.43600012    0.49337044    0.07170000
opls_144-99    H    0.04154986    0.62626997    0.47756979    0.06610000
opls_144-100    H    0.73069966    0.46429975    0.48889959    0.07260000
opls_144-101    H    0.07571983    0.30679984    0.49390974    0.06550000
opls_910-102    H    0.38846980    0.30410990    0.49696019    0.28520000
opls_910-103    H    0.92152977    0.48170983    0.48010980    0.28520000
opls_146-104    H    0.93733986    0.38799010    0.48769946    0.10540000
opls_146-105    H    0.01359979    0.34079997    0.49773039    0.07360000
opls_525-106    H    0.50082981    0.31394978    0.51893009    0.07040000
opls_526-107    H    0.62751008    0.39003996    0.52311079    0.11160000
opls_910-108    H    0.70887992    0.58467996    0.49395076    0.28550000
opls_910-109    H    0.20516961    0.44518971    0.50387990    0.28520000
opls_524-110    H    0.11866991    0.91632986    0.47821998    0.03950000
opls_524-111    H    0.59595982    0.56583964    0.47919072    0.03970000
opls_146-112    H    0.11325985    0.59464011    0.47238038    0.06620000
opls_796-113    H    0.24764970    0.53627976    0.20882959    0.40670000
opls_238-114    N    0.04565959    0.15514981    0.99569018    -0.21830000
opls_238-115    N    0.93890988    0.87418988    0.98070075    -0.28890000
opls_238-116    N    0.34592982    0.43159965    0.99452044    -0.22590000
opls_238-117    N    0.89509980    0.56329962    0.97420032    -0.22330000
opls_238-118    N    0.63152008    0.60604982    0.00048005    -0.21700000
opls_238-119    N    0.07103971    0.45616971    0.98453964    -0.19960000
opls_238-120    N    0.09421991    0.09826999    0.49404950    -0.29400000
opls_238-121    N    0.98870965    0.81687966    0.47815010    -0.21450000
opls_238-122    N    0.41054986    0.35774977    0.49431079    -0.29280000
opls_238-123    N    0.97382998    0.51874970    0.47830961    -0.21680000
opls_238-124    N    0.69251970    0.53194985    0.49586032    -0.21640000
opls_238-125    N    0.15167973    0.41249998    0.49895938    -0.23380000
opls_520-126    N    0.10811983    0.00252010    0.48613018    -0.30120000
opls_520-127    N    0.50800979    0.46853976    0.48618032    -0.30940000
opls_520-128    N    0.03162973    0.98517978    0.98652061    -0.30640000
opls_281-129    O    0.96087968    0.76882981    0.97475937    -0.37890000
opls_281-130    O    0.24619967    0.30346962    0.99596970    -0.37870000
opls_281-131    O    0.19929990    0.48507978    0.00877004    -0.43790000
opls_281-132    O    0.01672005    0.25455005    0.99057065    -0.36500000
opls_281-133    O    0.73601966    0.73227981    0.96148962    -0.42220000
opls_281-134    O    0.76966984    0.54184988    0.99478932    -0.32370000
opls_494-135    O    0.60225979    0.69432972    0.28218010    -0.51780000
opls_494-136    O    0.49197019    0.68756999    0.12918981    -0.50160000
opls_154-137    O    0.59425985    0.72430969    0.91742979    -0.51790000
opls_494-138    O    0.80913983    0.33549977    0.88680985    -0.52980000
opls_494-139    O    0.77684962    0.42798985    0.86677989    -0.50160000
opls_154-140    O    0.80456991    0.38192992    0.20453040    -0.52050000
opls_281-141    O    0.02169997    0.71907979    0.47864079    -0.45240000
opls_281-142    O    0.30150962    0.23338976    0.49931031    -0.36440000
opls_281-143    O    0.27757004    0.42953998    0.50267978    -0.39050000
opls_281-144    O    0.08044999    0.20696980    0.49881051    -0.38850000
opls_281-145    O    0.78998999    0.66207978    0.48537061    -0.38850000
opls_281-146    O    0.84366990    0.48597991    0.45589004    -0.43790000
opls_494-147    O    0.25996979    0.58596002    0.68761014    -0.52980000
opls_494-148    O    0.23083972    0.64021982    0.37187967    -0.50160000
opls_154-149    O    0.26198967    0.54763965    0.35390056    -0.47530000
opls_474-150    S    0.55113017    0.67901010    0.11276934    1.19780000
opls_474-151    S    0.81679002    0.39776008    0.96390050    1.19790000
opls_474-152    S    0.22915992    0.58039991    0.48122030    1.19780000
