#======================================================================
# Crystal Data Generated By AuToFF
#----------------------------------------------------------------------

data_AuToFF_phase_1

_cell_length_a                         37.5387
_cell_length_b                         37.5387
_cell_length_c                         4.6000
_cell_angle_alpha                      90.00
_cell_angle_beta                       90.00
_cell_angle_gamma                      120.00
_symmetry_space_group_name_H-M_alt     'P 1'
_symmetry_space_group_IT_number        1

loop_
_space_group_symop_operation_xyz
   'x, y, z'

loop_
   _atom_site_label
   _atom_site_type_symbol
   _atom_site_fract_x
   _atom_site_fract_y
   _atom_site_fract_z
   _atom_site_charge
opls_141-0    C    0.48119004    0.48263998    0.50353043    0.02590000
opls_700-1    C    0.44323000    0.48397990    0.51923913    0.07920000
opls_145-2    C    0.41075000    0.45920989    0.33080000    -0.12620000
opls_145-3    C    0.37490993    0.46024989    0.34183913    -0.16830000
opls_145-4    C    0.37046986    0.48527983    0.55113913    0.21990000
opls_145-5    C    0.40274995    0.50970010    0.74198043    -0.15290000
opls_145-6    C    0.43855992    0.50868993    0.72580000    -0.13320000
opls_700-7    C    0.47415982    0.44089984    0.49301957    0.07650000
opls_145-8    C    0.43945995    0.40954989    0.63470000    -0.12620000
opls_145-9    C    0.42981995    0.36928993    0.61626957    -0.16840000
opls_145-10    C    0.45555984    0.35951986    0.45853043    0.21870000
opls_145-11    C    0.49039009    0.39044008    0.31750000    -0.18230000
opls_145-12    C    0.49936985    0.43039982    0.33441087    -0.17190000
opls_142-13    C    0.30115993    0.45788012    0.48661957    0.11970000
opls_700-14    C    0.26636990    0.46320995    0.45491087    0.06270000
opls_145-15    C    0.22813001    0.42995010    0.38411957    -0.17050000
opls_145-16    C    0.27128006    0.50193005    0.50791957    -0.17030000
opls_142-17    C    0.47737997    0.31362000    0.48766087    0.12020000
opls_700-18    C    0.47298983    0.27393987    0.45341957    0.06270000
opls_145-19    C    0.50681001    0.26916003    0.50813913    -0.17030000
opls_145-20    C    0.43486985    0.24044994    0.38233043    -0.17030000
opls_141-21    C    0.51736005    0.99854996    0.50353043    0.02590000
opls_700-22    C    0.51601999    0.95925003    0.51923913    0.07920000
opls_145-23    C    0.54079008    0.95153997    0.33080000    -0.12620000
opls_145-24    C    0.53974998    0.91465994    0.34183913    -0.16960000
opls_145-25    C    0.51472007    0.88519007    0.55113913    0.21980000
opls_145-26    C    0.49030006    0.89304993    0.74198043    -0.15290000
opls_145-27    C    0.49130990    0.92986997    0.72580000    -0.13320000
opls_700-28    C    0.55909996    0.03325985    0.49301957    0.07650000
opls_145-29    C    0.59044992    0.02991005    0.63470000    -0.12610000
opls_145-30    C    0.63070990    0.06053005    0.61626957    -0.16840000
opls_145-31    C    0.64048006    0.09604002    0.45853043    0.21870000
opls_145-32    C    0.60955988    0.09994995    0.31750000    -0.18230000
opls_145-33    C    0.56959999    0.06897006    0.33441087    -0.17190000
opls_142-34    C    0.54211984    0.84327982    0.48661957    0.11960000
opls_700-35    C    0.53678997    0.80315982    0.45491087    0.06270000
opls_145-36    C    0.57005012    0.79818004    0.38411957    -0.17050000
opls_145-37    C    0.49806996    0.76934998    0.50791957    -0.17040000
opls_142-38    C    0.68637988    0.16375998    0.48766087    0.12020000
opls_700-39    C    0.72606002    0.19905000    0.45341957    0.06270000
opls_145-40    C    0.73084014    0.23765014    0.50813913    -0.17030000
opls_145-41    C    0.75954991    0.19441996    0.38233043    -0.17030000
opls_141-42    C    0.00144991    0.51881006    0.50353043    0.02590000
opls_700-43    C    0.04075001    0.55677007    0.51923913    0.07920000
opls_145-44    C    0.04846003    0.58924984    0.33080000    -0.12620000
opls_145-45    C    0.08533994    0.62508986    0.34183913    -0.16830000
opls_145-46    C    0.11481007    0.62953010    0.55113913    0.21980000
opls_145-47    C    0.10694999    0.59724997    0.74198043    -0.15290000
opls_145-48    C    0.07013018    0.56144010    0.72580000    -0.13320000
opls_700-49    C    0.96674006    0.52584001    0.49301957    0.07650000
opls_145-50    C    0.97009013    0.56054005    0.63470000    -0.12620000
opls_145-51    C    0.93946989    0.57018001    0.61626957    -0.16840000
opls_145-52    C    0.90395995    0.54443982    0.45853043    0.21870000
opls_145-53    C    0.90005002    0.50960997    0.31750000    -0.18230000
opls_145-54    C    0.93103001    0.50062982    0.33441087    -0.17190000
opls_142-55    C    0.15671996    0.69884006    0.48661957    0.11960000
opls_700-56    C    0.19683998    0.73362992    0.45491087    0.06270000
opls_145-57    C    0.20181987    0.77186986    0.38411957    -0.17050000
opls_145-58    C    0.23064997    0.72871997    0.50791957    -0.17040000
opls_142-59    C    0.83623988    0.52262002    0.48766087    0.12020000
opls_700-60    C    0.80095000    0.52700982    0.45341957    0.06270000
opls_145-61    C    0.76234986    0.49318983    0.50813913    -0.17030000
opls_145-62    C    0.80557996    0.56513010    0.38233043    -0.17050000
opls_141-63    C    0.51880996    0.51736002    0.50353043    0.02590000
opls_700-64    C    0.55677000    0.51602010    0.51923913    0.07920000
opls_145-65    C    0.58925000    0.54079011    0.33080000    -0.12620000
opls_145-66    C    0.62509007    0.53975011    0.34183913    -0.16830000
opls_145-67    C    0.62952999    0.51471986    0.55113913    0.21980000
opls_145-68    C    0.59725005    0.49029990    0.74198043    -0.15290000
opls_145-69    C    0.56144008    0.49131007    0.72580000    -0.13320000
opls_700-70    C    0.52584002    0.55909986    0.49301957    0.07650000
opls_145-71    C    0.56054005    0.59045011    0.63470000    -0.12620000
opls_145-72    C    0.57018005    0.63071007    0.61626957    -0.16840000
opls_145-73    C    0.54444001    0.64047984    0.45853043    0.21870000
opls_145-74    C    0.50960991    0.60955992    0.31750000    -0.18230000
opls_145-75    C    0.50063000    0.56959987    0.33441087    -0.17180000
opls_142-76    C    0.69884007    0.54211988    0.48661957    0.11960000
opls_700-77    C    0.73363010    0.53679005    0.45491087    0.06270000
opls_145-78    C    0.77186999    0.57004990    0.38411957    -0.17050000
opls_145-79    C    0.72871994    0.49806995    0.50791957    -0.17040000
opls_142-80    C    0.52262003    0.68638000    0.48766087    0.12020000
opls_700-81    C    0.52701002    0.72605982    0.45341957    0.06270000
opls_145-82    C    0.49318999    0.73083997    0.50813913    -0.17020000
opls_145-83    C    0.56513015    0.75955006    0.38233043    -0.17040000
opls_141-84    C    0.48263995    0.00145004    0.50353043    0.02590000
opls_700-85    C    0.48398001    0.04074997    0.51923913    0.07920000
opls_145-86    C    0.45920992    0.04846003    0.33080000    -0.12620000
opls_145-87    C    0.46025002    0.08534006    0.34183913    -0.16960000
opls_145-88    C    0.48527993    0.11480993    0.55113913    0.21980000
opls_145-89    C    0.50969994    0.10695007    0.74198043    -0.15290000
opls_145-90    C    0.50869010    0.07013003    0.72580000    -0.13320000
opls_700-91    C    0.44089989    0.96673985    0.49301957    0.07660000
opls_145-92    C    0.40955008    0.97008995    0.63470000    -0.12620000
opls_145-93    C    0.36929010    0.93946995    0.61626957    -0.16840000
opls_145-94    C    0.35951994    0.90395998    0.45853043    0.21870000
opls_145-95    C    0.39044012    0.90005005    0.31750000    -0.18230000
opls_145-96    C    0.43040001    0.93102994    0.33441087    -0.17190000
opls_142-97    C    0.45788000    0.15671987    0.48661957    0.11960000
opls_700-98    C    0.46320987    0.19683987    0.45491087    0.06270000
opls_145-99    C    0.42994988    0.20181996    0.38411957    -0.17050000
opls_145-100    C    0.50193004    0.23065002    0.50791957    -0.17040000
opls_142-101    C    0.31362012    0.83624002    0.48766087    0.12020000
opls_700-102    C    0.27393998    0.80095000    0.45341957    0.06270000
opls_145-103    C    0.26915986    0.76234986    0.50813913    -0.17020000
opls_145-104    C    0.24045009    0.80558004    0.38233043    -0.17040000
opls_141-105    C    0.99855009    0.48118994    0.50353043    0.02590000
opls_700-106    C    0.95924999    0.44322993    0.51923913    0.07920000
opls_145-107    C    0.95153982    0.41074985    0.33080000    -0.12620000
opls_145-108    C    0.91465991    0.37490983    0.34183913    -0.16960000
opls_145-109    C    0.88518993    0.37046990    0.55113913    0.21990000
opls_145-110    C    0.89305001    0.40275003    0.74198043    -0.15290000
opls_145-111    C    0.92986982    0.43855990    0.72580000    -0.13320000
opls_700-112    C    0.03325994    0.47415999    0.49301957    0.07660000
opls_145-113    C    0.02990987    0.43945995    0.63470000    -0.12620000
opls_145-114    C    0.06053011    0.42981999    0.61626957    -0.16840000
opls_145-115    C    0.09603989    0.45555987    0.45853043    0.21870000
opls_145-116    C    0.09994998    0.49039003    0.31750000    -0.18230000
opls_145-117    C    0.06896984    0.49936988    0.33441087    -0.17190000
opls_142-118    C    0.84328004    0.30115994    0.48661957    0.11970000
opls_700-119    C    0.80316002    0.26637008    0.45491087    0.06270000
opls_145-120    C    0.79817998    0.22812983    0.38411957    -0.17050000
opls_145-121    C    0.76935003    0.27128003    0.50791957    -0.17040000
opls_142-122    C    0.16376012    0.47737998    0.48766087    0.12020000
opls_700-123    C    0.19904985    0.47298987    0.45341957    0.06270000
opls_145-124    C    0.23764999    0.50680986    0.50813913    -0.17030000
opls_145-125    C    0.19442004    0.43486990    0.38233043    -0.17020000
opls_146-126    H    0.46451988    0.52739986    0.87113913    0.06900000
opls_146-127    H    0.41498991    0.44006008    0.16800000    0.10290000
opls_146-128    H    0.35046000    0.44322008    0.18053043    0.09930000
opls_146-129    H    0.39816999    0.52851984    0.90533913    0.09930000
opls_146-130    H    0.41989994    0.41757002    0.76433043    0.06080000
opls_146-131    H    0.40328001    0.34502993    0.73185000    0.10240000
opls_146-132    H    0.50940996    0.38198008    0.18511957    0.10460000
opls_146-133    H    0.52673004    0.45439990    0.22565000    0.10720000
opls_144-134    H    0.29665997    0.42693006    0.43990000    0.03710000
opls_146-135    H    0.22558004    0.40035011    0.33361087    0.10730000
opls_146-136    H    0.30208014    0.52654011    0.56266957    0.10760000
opls_144-137    H    0.50802986    0.33907997    0.55378913    0.06590000
opls_146-138    H    0.53629994    0.29613986    0.56261087    0.10690000
opls_146-139    H    0.40993005    0.24639005    0.33293043    0.10640000
opls_146-140    H    0.47260003    0.93711986    0.87113913    0.06900000
opls_146-141    H    0.55994011    0.97493007    0.16800000    0.10280000
opls_146-142    H    0.55677991    0.90723995    0.18053043    0.09930000
opls_146-143    H    0.47147996    0.86964998    0.90533913    0.09930000
opls_146-144    H    0.58242998    0.00233009    0.76433043    0.06080000
opls_146-145    H    0.65497011    0.05825010    0.73185000    0.10240000
opls_146-146    H    0.61802000    0.12742995    0.18511957    0.10460000
opls_146-147    H    0.54560006    0.07233000    0.22565000    0.10720000
opls_144-148    H    0.57307009    0.86972996    0.43990000    0.03720000
opls_146-149    H    0.59964998    0.82523000    0.33361087    0.10730000
opls_146-150    H    0.47345990    0.77553987    0.56266957    0.10760000
opls_144-151    H    0.66092003    0.16894985    0.55378913    0.06590000
opls_146-152    H    0.70385987    0.24015987    0.56261087    0.10690000
opls_146-153    H    0.75361001    0.16354004    0.33293043    0.10640000
opls_146-154    H    0.06287993    0.53547997    0.87113913    0.06900000
opls_146-155    H    0.02506998    0.58500984    0.16800000    0.10280000
opls_146-156    H    0.09276008    0.64953996    0.18053043    0.09930000
opls_146-157    H    0.13034989    0.60182987    0.90533913    0.09930000
opls_146-158    H    0.99766982    0.58009989    0.76433043    0.06080000
opls_146-159    H    0.94174987    0.59671997    0.73185000    0.10240000
opls_146-160    H    0.87257004    0.49058997    0.18511957    0.10460000
opls_146-161    H    0.92767017    0.47327010    0.22565000    0.10720000
opls_144-162    H    0.13026994    0.70333998    0.43990000    0.03710000
opls_146-163    H    0.17476998    0.77441988    0.33361087    0.10730000
opls_146-164    H    0.22445996    0.69792002    0.56266957    0.10760000
opls_144-165    H    0.83104995    0.49196988    0.55378913    0.06590000
opls_146-166    H    0.75984003    0.46369996    0.56261087    0.10690000
opls_146-167    H    0.83645994    0.59006991    0.33293043    0.10660000
opls_146-168    H    0.53547996    0.47259983    0.87113913    0.06900000
opls_146-169    H    0.58501009    0.55993992    0.16800000    0.10280000
opls_146-170    H    0.64954000    0.55677992    0.18053043    0.09930000
opls_146-171    H    0.60182985    0.47147985    0.90533913    0.09940000
opls_146-172    H    0.58010006    0.58242998    0.76433043    0.06080000
opls_146-173    H    0.59671999    0.65497007    0.73185000    0.10250000
opls_146-174    H    0.49059004    0.61801992    0.18511957    0.10460000
opls_146-175    H    0.47326996    0.54560010    0.22565000    0.10720000
opls_144-176    H    0.70334003    0.57306994    0.43990000    0.03710000
opls_146-177    H    0.77441996    0.59964989    0.33361087    0.10730000
opls_146-178    H    0.69791986    0.47345989    0.56266957    0.10760000
opls_144-179    H    0.49197014    0.66092003    0.55378913    0.06590000
opls_146-180    H    0.46369990    0.70385983    0.56261087    0.10690000
opls_146-181    H    0.59006995    0.75360995    0.33293043    0.10640000
opls_146-182    H    0.52739997    0.06288014    0.87113913    0.06900000
opls_146-183    H    0.44005989    0.02506993    0.16800000    0.10290000
opls_146-184    H    0.44322009    0.09276005    0.18053043    0.09930000
opls_146-185    H    0.52852004    0.13035002    0.90533913    0.09930000
opls_146-186    H    0.41757002    0.99766991    0.76433043    0.06080000
opls_146-187    H    0.34502989    0.94174990    0.73185000    0.10240000
opls_146-188    H    0.38198000    0.87257005    0.18511957    0.10460000
opls_146-189    H    0.45439994    0.92767000    0.22565000    0.10720000
opls_144-190    H    0.42692991    0.13027004    0.43990000    0.03710000
opls_146-191    H    0.40035002    0.17477000    0.33361087    0.10730000
opls_146-192    H    0.52654010    0.22446013    0.56266957    0.10760000
opls_144-193    H    0.33907981    0.83104984    0.55378913    0.06590000
opls_146-194    H    0.29613997    0.75983983    0.56261087    0.10700000
opls_146-195    H    0.24638999    0.83645996    0.33293043    0.10640000
opls_146-196    H    0.93712007    0.46452003    0.87113913    0.06900000
opls_146-197    H    0.97492986    0.41498985    0.16800000    0.10280000
opls_146-198    H    0.90723992    0.35046004    0.18053043    0.09930000
opls_146-199    H    0.86964996    0.39816983    0.90533913    0.09930000
opls_146-200    H    0.00233018    0.41990011    0.76433043    0.06080000
opls_146-201    H    0.05825013    0.40328003    0.73185000    0.10250000
opls_146-202    H    0.12742996    0.50941003    0.18511957    0.10460000
opls_146-203    H    0.07232983    0.52672990    0.22565000    0.10720000
opls_144-204    H    0.86973006    0.29666002    0.43990000    0.03710000
opls_146-205    H    0.82523002    0.22558012    0.33361087    0.10730000
opls_146-206    H    0.77554004    0.30207998    0.56266957    0.10760000
opls_144-207    H    0.16894989    0.50802981    0.55378913    0.06590000
opls_146-208    H    0.24015997    0.53630004    0.56261087    0.10690000
opls_146-209    H    0.16354006    0.40993009    0.33293043    0.10640000
opls_750-210    N    0.33579998    0.48817006    0.56396087    -0.17640000
opls_750-211    N    0.44722003    0.31976006    0.44920000    -0.17420000
opls_750-212    N    0.51183000    0.84762994    0.56396087    -0.17650000
opls_750-213    N    0.68023994    0.12746009    0.44920000    -0.17410000
opls_750-214    N    0.15237002    0.66420000    0.56396087    -0.17650000
opls_750-215    N    0.87254003    0.55277985    0.44920000    -0.17420000
opls_750-216    N    0.66420002    0.51182994    0.56396087    -0.17640000
opls_750-217    N    0.55277997    0.68023994    0.44920000    -0.17420000
opls_750-218    N    0.48817000    0.15237006    0.56396087    -0.17640000
opls_750-219    N    0.31976006    0.87253991    0.44920000    -0.17420000
opls_750-220    N    0.84762998    0.33580000    0.56396087    -0.17650000
opls_750-221    N    0.12745981    0.44721984    0.44920000    -0.17420000
