#======================================================================
# Crystal Data Generated By AuToFF
#----------------------------------------------------------------------

data_AuToFF_phase_1

_cell_length_a                         19.6394
_cell_length_b                         19.6394
_cell_length_c                         8.9062
_cell_angle_alpha                      90.00
_cell_angle_beta                       90.00
_cell_angle_gamma                      90.00
_symmetry_space_group_name_H-M_alt     'P 1'
_symmetry_space_group_IT_number        1

loop_
_space_group_symop_operation_xyz
   'x, y, z'

loop_
   _atom_site_label
   _atom_site_type_symbol
   _atom_site_fract_x
   _atom_site_fract_y
   _atom_site_fract_z
   _atom_site_charge
opls_700-0    C    0.50830015    0.31030021    0.26540051    0.03210000
opls_145-1    C    0.52580018    0.39529975    0.01580023    0.18090000
opls_145-2    C    0.57890007    0.38290019    0.11230042    -0.22950000
opls_145-3    C    0.57089982    0.34069982    0.23619950    -0.22640000
opls_145-4    C    0.46219997    0.36740023    0.04790034    -0.22840000
opls_145-5    C    0.45400012    0.32560007    0.17070019    -0.22710000
opls_145-6    C    0.43820025    0.49990020    0.57530035    -0.22640000
opls_700-7    C    0.49740012    0.48090013    0.64970021    0.04980000
opls_145-8    C    0.55949978    0.48040011    0.57520042    -0.22640000
opls_142-9    C    0.49000020    0.45459994    0.80529968    0.09610000
opls_700-10    C    0.00830015    0.81030021    0.76540051    0.03210000
opls_145-11    C    0.02580018    0.89529975    0.51580023    0.18090000
opls_145-12    C    0.07890007    0.88290019    0.61230042    -0.22950000
opls_145-13    C    0.07089982    0.84069982    0.73619950    -0.22640000
opls_145-14    C    0.96219997    0.86740023    0.54790034    -0.22840000
opls_145-15    C    0.95400012    0.82560007    0.67070019    -0.22730000
opls_145-16    C    0.93820025    0.99990020    0.07530035    -0.22640000
opls_700-17    C    0.99740012    0.98090013    0.14970021    0.04980000
opls_145-18    C    0.05949978    0.98040011    0.07520042    -0.22640000
opls_142-19    C    0.99000020    0.95459994    0.30529968    0.09610000
opls_700-20    C    0.99169985    0.68969979    0.76540051    0.03210000
opls_145-21    C    0.97419982    0.60470025    0.51580023    0.18090000
opls_145-22    C    0.92109993    0.61709981    0.61230042    -0.22950000
opls_145-23    C    0.92910018    0.65930018    0.73619950    -0.22630000
opls_145-24    C    0.03780003    0.63259977    0.54790034    -0.22840000
opls_145-25    C    0.04599988    0.67439993    0.67070019    -0.22730000
opls_145-26    C    0.06179975    0.50009980    0.07530035    -0.22630000
opls_700-27    C    0.00259988    0.51909987    0.14970021    0.04980000
opls_145-28    C    0.94050022    0.51959989    0.07520042    -0.22640000
opls_142-29    C    0.00999980    0.54540006    0.30529968    0.09610000
opls_700-30    C    0.49169985    0.18969979    0.26540051    0.03210000
opls_145-31    C    0.47419982    0.10470025    0.01580023    0.18090000
opls_145-32    C    0.42109993    0.11709981    0.11230042    -0.22950000
opls_145-33    C    0.42910018    0.15930018    0.23619950    -0.22640000
opls_145-34    C    0.53780003    0.13259977    0.04790034    -0.22840000
opls_145-35    C    0.54599988    0.17439993    0.17070019    -0.22730000
opls_145-36    C    0.56179975    0.00009980    0.57530035    -0.22630000
opls_700-37    C    0.50259988    0.01909987    0.64970021    0.04980000
opls_145-38    C    0.44050022    0.01959989    0.57520042    -0.22640000
opls_142-39    C    0.50999980    0.04540006    0.80529968    0.09610000
opls_700-40    C    0.43969979    0.75830015    0.51540051    0.03210000
opls_145-41    C    0.35470025    0.77580018    0.26580023    0.18090000
opls_145-42    C    0.36709981    0.82890007    0.36230042    -0.22950000
opls_145-43    C    0.40930018    0.82089982    0.48619950    -0.22640000
opls_145-44    C    0.38259977    0.71219997    0.29790034    -0.22840000
opls_145-45    C    0.42439993    0.70400012    0.42070019    -0.22720000
opls_145-46    C    0.25009980    0.68820025    0.82530035    -0.22640000
opls_700-47    C    0.26909987    0.74740012    0.89970021    0.04980000
opls_145-48    C    0.26959989    0.80949978    0.82520042    -0.22640000
opls_142-49    C    0.29540006    0.74000020    0.05529968    0.09610000
opls_700-50    C    0.93969979    0.25830015    0.01540051    0.03210000
opls_145-51    C    0.85470025    0.27580018    0.76580023    0.18090000
opls_145-52    C    0.86709981    0.32890007    0.86230042    -0.22950000
opls_145-53    C    0.90930018    0.32089982    0.98619950    -0.22640000
opls_145-54    C    0.88259977    0.21219997    0.79790034    -0.22840000
opls_145-55    C    0.92439993    0.20400012    0.92070019    -0.22730000
opls_145-56    C    0.75009980    0.18820025    0.32530035    -0.22640000
opls_700-57    C    0.76909987    0.24740012    0.39970021    0.04980000
opls_145-58    C    0.76959989    0.30949978    0.32520042    -0.22640000
opls_142-59    C    0.79540006    0.24000020    0.55529968    0.09610000
opls_700-60    C    0.06030021    0.24169985    0.01540051    0.03210000
opls_145-61    C    0.14529975    0.22419982    0.76580023    0.18090000
opls_145-62    C    0.13290019    0.17109993    0.86230042    -0.22950000
opls_145-63    C    0.09069982    0.17910018    0.98619950    -0.22640000
opls_145-64    C    0.11740023    0.28780003    0.79790034    -0.22840000
opls_145-65    C    0.07560007    0.29599988    0.92070019    -0.22730000
opls_145-66    C    0.24990020    0.31179975    0.32530035    -0.22640000
opls_700-67    C    0.23090013    0.25259988    0.39970021    0.04980000
opls_145-68    C    0.23040011    0.19050022    0.32520042    -0.22640000
opls_142-69    C    0.20459994    0.25999980    0.55529968    0.09610000
opls_700-70    C    0.56030021    0.74169985    0.51540051    0.03210000
opls_145-71    C    0.64529975    0.72419982    0.26580023    0.18090000
opls_145-72    C    0.63290019    0.67109993    0.36230042    -0.22950000
opls_145-73    C    0.59069982    0.67910018    0.48619950    -0.22640000
opls_145-74    C    0.61740023    0.78780003    0.29790034    -0.22840000
opls_145-75    C    0.57560007    0.79599988    0.42070019    -0.22730000
opls_145-76    C    0.74990020    0.81179975    0.82530035    -0.22640000
opls_700-77    C    0.73090013    0.75259988    0.89970021    0.04980000
opls_145-78    C    0.73040011    0.69050022    0.82520042    -0.22640000
opls_142-79    C    0.70459994    0.75999980    0.05529968    0.09610000
opls_700-80    C    0.49169985    0.68969979    0.73459949    0.03210000
opls_145-81    C    0.47419982    0.60470025    0.98419977    0.18090000
opls_145-82    C    0.42109993    0.61709981    0.88769958    -0.22950000
opls_145-83    C    0.42910018    0.65930018    0.76380050    -0.22640000
opls_145-84    C    0.53780003    0.63259977    0.95209966    -0.22830000
opls_145-85    C    0.54599988    0.67439993    0.82929981    -0.22730000
opls_145-86    C    0.56179975    0.50009980    0.42469965    -0.22640000
opls_700-87    C    0.50259988    0.51909987    0.35029979    0.04980000
opls_145-88    C    0.44050022    0.51959989    0.42479958    -0.22640000
opls_142-89    C    0.50999980    0.54540006    0.19470032    0.09610000
opls_700-90    C    0.99169985    0.18969979    0.23459949    0.03210000
opls_145-91    C    0.97419982    0.10470025    0.48419977    0.18090000
opls_145-92    C    0.92109993    0.11709981    0.38769958    -0.22950000
opls_145-93    C    0.92910018    0.15930018    0.26380050    -0.22640000
opls_145-94    C    0.03780003    0.13259977    0.45209966    -0.22840000
opls_145-95    C    0.04599988    0.17439993    0.32929981    -0.22730000
opls_145-96    C    0.06179975    0.00009980    0.92469965    -0.22640000
opls_700-97    C    0.00259988    0.01909987    0.85029979    0.04980000
opls_145-98    C    0.94050022    0.01959989    0.92479958    -0.22640000
opls_142-99    C    0.00999980    0.04540006    0.69470032    0.09610000
opls_700-100    C    0.00830015    0.31030021    0.23459949    0.03210000
opls_145-101    C    0.02580018    0.39529975    0.48419977    0.18090000
opls_145-102    C    0.07890007    0.38290019    0.38769958    -0.22950000
opls_145-103    C    0.07089982    0.34069982    0.26380050    -0.22640000
opls_145-104    C    0.96219997    0.36740023    0.45209966    -0.22840000
opls_145-105    C    0.95400012    0.32560007    0.32929981    -0.22730000
opls_145-106    C    0.93820025    0.49990020    0.92469965    -0.22640000
opls_700-107    C    0.99740012    0.48090013    0.85029979    0.04980000
opls_145-108    C    0.05949978    0.48040011    0.92479958    -0.22640000
opls_142-109    C    0.99000020    0.45459994    0.69470032    0.09610000
opls_700-110    C    0.50830015    0.81030021    0.73459949    0.03210000
opls_145-111    C    0.52580018    0.89529975    0.98419977    0.18090000
opls_145-112    C    0.57890007    0.88290019    0.88769958    -0.22950000
opls_145-113    C    0.57089982    0.84069982    0.76380050    -0.22640000
opls_145-114    C    0.46219997    0.86740023    0.95209966    -0.22840000
opls_145-115    C    0.45400012    0.82560007    0.82929981    -0.22730000
opls_145-116    C    0.43820025    0.99990020    0.42469965    -0.22640000
opls_700-117    C    0.49740012    0.98090013    0.35029979    0.04980000
opls_145-118    C    0.55949978    0.98040011    0.42479958    -0.22640000
opls_142-119    C    0.49000020    0.95459994    0.19470032    0.09610000
opls_700-120    C    0.56030021    0.24169985    0.48459949    0.03210000
opls_145-121    C    0.64529975    0.22419982    0.73419977    0.18090000
opls_145-122    C    0.63290019    0.17109993    0.63769958    -0.22940000
opls_145-123    C    0.59069982    0.17910018    0.51380050    -0.22640000
opls_145-124    C    0.61740023    0.28780003    0.70209966    -0.22840000
opls_145-125    C    0.57560007    0.29599988    0.57929981    -0.22730000
opls_145-126    C    0.74990020    0.31179975    0.17469965    -0.22640000
opls_700-127    C    0.73090013    0.25259988    0.10029979    0.04980000
opls_145-128    C    0.73040011    0.19050022    0.17479958    -0.22640000
opls_142-129    C    0.70459994    0.25999980    0.94470032    0.09610000
opls_700-130    C    0.06030021    0.74169985    0.98459949    0.03210000
opls_145-131    C    0.14529975    0.72419982    0.23419977    0.18090000
opls_145-132    C    0.13290019    0.67109993    0.13769958    -0.22940000
opls_145-133    C    0.09069982    0.67910018    0.01380050    -0.22640000
opls_145-134    C    0.11740023    0.78780003    0.20209966    -0.22830000
opls_145-135    C    0.07560007    0.79599988    0.07929981    -0.22730000
opls_145-136    C    0.24990020    0.81179975    0.67469965    -0.22640000
opls_700-137    C    0.23090013    0.75259988    0.60029979    0.04980000
opls_145-138    C    0.23040011    0.69050022    0.67479958    -0.22630000
opls_142-139    C    0.20459994    0.75999980    0.44470032    0.09610000
opls_700-140    C    0.93969979    0.75830015    0.98459949    0.03210000
opls_145-141    C    0.85470025    0.77580018    0.23419977    0.18090000
opls_145-142    C    0.86709981    0.82890007    0.13769958    -0.22950000
opls_145-143    C    0.90930018    0.82089982    0.01380050    -0.22640000
opls_145-144    C    0.88259977    0.71219997    0.20209966    -0.22830000
opls_145-145    C    0.92439993    0.70400012    0.07929981    -0.22730000
opls_145-146    C    0.75009980    0.68820025    0.67469965    -0.22630000
opls_700-147    C    0.76909987    0.74740012    0.60029979    0.04980000
opls_145-148    C    0.76959989    0.80949978    0.67479958    -0.22640000
opls_142-149    C    0.79540006    0.74000020    0.44470032    0.09610000
opls_700-150    C    0.43969979    0.25830015    0.48459949    0.03210000
opls_145-151    C    0.35470025    0.27580018    0.73419977    0.18090000
opls_145-152    C    0.36709981    0.32890007    0.63769958    -0.22950000
opls_145-153    C    0.40930018    0.32089982    0.51380050    -0.22640000
opls_145-154    C    0.38259977    0.21219997    0.70209966    -0.22840000
opls_145-155    C    0.42439993    0.20400012    0.57929981    -0.22730000
opls_145-156    C    0.25009980    0.18820025    0.17469965    -0.22640000
opls_700-157    C    0.26909987    0.24740012    0.10029979    0.04980000
opls_145-158    C    0.26959989    0.30949978    0.17479958    -0.22640000
opls_142-159    C    0.29540006    0.24000020    0.94470032    0.09610000
opls_701-160    C    0.50000000    0.25000000    0.37499944    0.00910000
opls_701-161    C    1.00000000    0.75000000    0.87500056    0.00910000
opls_701-162    C    0.50000000    0.75000000    0.62499944    0.00910000
opls_701-163    C    1.00000000    0.25000000    0.12500056    0.00910000
opls_146-164    H    0.62189985    0.40350011    0.09409962    0.20880000
opls_146-165    H    0.60830015    0.33249997    0.30130022    0.20880000
opls_146-166    H    0.42439993    0.37730022    0.98500034    0.20880000
opls_146-167    H    0.41040001    0.30680011    0.19109946    0.20880000
opls_146-168    H    0.39599988    0.49959978    0.62720015    0.20890000
opls_146-169    H    0.59979989    0.46700001    0.62589993    0.20880000
opls_144-170    H    0.44629979    0.45539986    0.85079944    0.09800000
opls_146-171    H    0.12189985    0.90350011    0.59409962    0.20890000
opls_146-172    H    0.10830015    0.83249997    0.80130022    0.20880000
opls_146-173    H    0.92439993    0.87730022    0.48500034    0.20880000
opls_146-174    H    0.91040001    0.80680011    0.69109946    0.20880000
opls_146-175    H    0.89599988    0.99959978    0.12720015    0.20890000
opls_146-176    H    0.09979989    0.96700001    0.12589993    0.20890000
opls_144-177    H    0.94629979    0.95539986    0.35079944    0.09800000
opls_146-178    H    0.87810015    0.59649989    0.59409962    0.20880000
opls_146-179    H    0.89169985    0.66750003    0.80130022    0.20880000
opls_146-180    H    0.07560007    0.62269978    0.48500034    0.20880000
opls_146-181    H    0.08959999    0.69319989    0.69109946    0.20900000
opls_146-182    H    0.10400012    0.50040022    0.12720015    0.20880000
opls_146-183    H    0.90020011    0.53299999    0.12589993    0.20880000
opls_144-184    H    0.05370021    0.54460014    0.35079944    0.09800000
opls_146-185    H    0.37810015    0.09649989    0.09409962    0.20880000
opls_146-186    H    0.39169985    0.16750003    0.30130022    0.20880000
opls_146-187    H    0.57560007    0.12269978    0.98500034    0.20880000
opls_146-188    H    0.58959999    0.19319989    0.19109946    0.20880000
opls_146-189    H    0.60400012    0.00040022    0.62720015    0.20880000
opls_146-190    H    0.40020011    0.03299999    0.62589993    0.20880000
opls_144-191    H    0.55370021    0.04460014    0.85079944    0.09800000
opls_146-192    H    0.34649989    0.87189985    0.34409962    0.20890000
opls_146-193    H    0.41750003    0.85830015    0.55130022    0.20880000
opls_146-194    H    0.37269978    0.67439993    0.23500034    0.20880000
opls_146-195    H    0.44319989    0.66040001    0.44109946    0.20890000
opls_146-196    H    0.25040022    0.64599988    0.87720015    0.20880000
opls_146-197    H    0.28299999    0.84979989    0.87589993    0.20880000
opls_144-198    H    0.29460014    0.69629979    0.10079944    0.09800000
opls_146-199    H    0.84649989    0.37189985    0.84409962    0.20880000
opls_146-200    H    0.91750003    0.35830015    0.05130022    0.20880000
opls_146-201    H    0.87269978    0.17439993    0.73500034    0.20880000
opls_146-202    H    0.94319989    0.16040001    0.94109946    0.20890000
opls_146-203    H    0.75040022    0.14599988    0.37720015    0.20890000
opls_146-204    H    0.78299999    0.34979989    0.37589993    0.20880000
opls_144-205    H    0.79460014    0.19629979    0.60079944    0.09800000
opls_146-206    H    0.15350011    0.12810015    0.84409962    0.20880000
opls_146-207    H    0.08249997    0.14169985    0.05130022    0.20880000
opls_146-208    H    0.12730022    0.32560007    0.73500034    0.20880000
opls_146-209    H    0.05680011    0.33959999    0.94109946    0.20880000
opls_146-210    H    0.24959978    0.35400012    0.37720015    0.20880000
opls_146-211    H    0.21700001    0.15020011    0.37589993    0.20880000
opls_144-212    H    0.20539986    0.30370021    0.60079944    0.09800000
opls_146-213    H    0.65350011    0.62810015    0.34409962    0.20880000
opls_146-214    H    0.58249997    0.64169985    0.55130022    0.20880000
opls_146-215    H    0.62730022    0.82560007    0.23500034    0.20880000
opls_146-216    H    0.55680011    0.83959999    0.44109946    0.20880000
opls_146-217    H    0.74959978    0.85400012    0.87720015    0.20880000
opls_146-218    H    0.71700001    0.65020011    0.87589993    0.20880000
opls_144-219    H    0.70539986    0.80370021    0.10079944    0.09800000
opls_146-220    H    0.37810015    0.59649989    0.90590038    0.20880000
opls_146-221    H    0.39169985    0.66750003    0.69869978    0.20880000
opls_146-222    H    0.57560007    0.62269978    0.01499966    0.20880000
opls_146-223    H    0.58959999    0.69319989    0.80890054    0.20890000
opls_146-224    H    0.60400012    0.50040022    0.37279985    0.20880000
opls_146-225    H    0.40020011    0.53299999    0.37410007    0.20880000
opls_144-226    H    0.55370021    0.54460014    0.14920056    0.09800000
opls_146-227    H    0.87810015    0.09649989    0.40590038    0.20880000
opls_146-228    H    0.89169985    0.16750003    0.19869978    0.20880000
opls_146-229    H    0.07560007    0.12269978    0.51499966    0.20880000
opls_146-230    H    0.08959999    0.19319989    0.30890054    0.20880000
opls_146-231    H    0.10400012    0.00040022    0.87279985    0.20880000
opls_146-232    H    0.90020011    0.03299999    0.87410007    0.20880000
opls_144-233    H    0.05370021    0.04460014    0.64920056    0.09800000
opls_146-234    H    0.12189985    0.40350011    0.40590038    0.20880000
opls_146-235    H    0.10830015    0.33249997    0.19869978    0.20880000
opls_146-236    H    0.92439993    0.37730022    0.51499966    0.20880000
opls_146-237    H    0.91040001    0.30680011    0.30890054    0.20880000
opls_146-238    H    0.89599988    0.49959978    0.87279985    0.20880000
opls_146-239    H    0.09979989    0.46700001    0.87410007    0.20880000
opls_144-240    H    0.94629979    0.45539986    0.64920056    0.09810000
opls_146-241    H    0.62189985    0.90350011    0.90590038    0.20890000
opls_146-242    H    0.60830015    0.83249997    0.69869978    0.20890000
opls_146-243    H    0.42439993    0.87730022    0.01499966    0.20880000
opls_146-244    H    0.41040001    0.80680011    0.80890054    0.20880000
opls_146-245    H    0.39599988    0.99959978    0.37279985    0.20890000
opls_146-246    H    0.59979989    0.96700001    0.37410007    0.20880000
opls_144-247    H    0.44629979    0.95539986    0.14920056    0.09810000
opls_146-248    H    0.65350011    0.12810015    0.65590038    0.20880000
opls_146-249    H    0.58249997    0.14169985    0.44869978    0.20880000
opls_146-250    H    0.62730022    0.32560007    0.76499966    0.20880000
opls_146-251    H    0.55680011    0.33959999    0.55890054    0.20880000
opls_146-252    H    0.74959978    0.35400012    0.12279985    0.20880000
opls_146-253    H    0.71700001    0.15020011    0.12410007    0.20880000
opls_144-254    H    0.70539986    0.30370021    0.89920056    0.09800000
opls_146-255    H    0.15350011    0.62810015    0.15590038    0.20880000
opls_146-256    H    0.08249997    0.64169985    0.94869978    0.20880000
opls_146-257    H    0.12730022    0.82560007    0.26499966    0.20890000
opls_146-258    H    0.05680011    0.83959999    0.05890054    0.20880000
opls_146-259    H    0.24959978    0.85400012    0.62279985    0.20880000
opls_146-260    H    0.21700001    0.65020011    0.62410007    0.20880000
opls_144-261    H    0.20539986    0.80370021    0.39920056    0.09800000
opls_146-262    H    0.84649989    0.87189985    0.15590038    0.20880000
opls_146-263    H    0.91750003    0.85830015    0.94869978    0.20880000
opls_146-264    H    0.87269978    0.67439993    0.26499966    0.20880000
opls_146-265    H    0.94319989    0.66040001    0.05890054    0.20880000
opls_146-266    H    0.75040022    0.64599988    0.62279985    0.20880000
opls_146-267    H    0.78299999    0.84979989    0.62410007    0.20890000
opls_144-268    H    0.79460014    0.69629979    0.39920056    0.09800000
opls_146-269    H    0.34649989    0.37189985    0.65590038    0.20880000
opls_146-270    H    0.41750003    0.35830015    0.44869978    0.20880000
opls_146-271    H    0.37269978    0.17439993    0.76499966    0.20880000
opls_146-272    H    0.44319989    0.16040001    0.55890054    0.20880000
opls_146-273    H    0.25040022    0.14599988    0.12279985    0.20890000
opls_146-274    H    0.28299999    0.34979989    0.12410007    0.20880000
opls_144-275    H    0.29460014    0.19629979    0.89920056    0.09800000
opls_750-276    N    0.54000020    0.43121022    0.88000045    -0.34780000
opls_750-277    N    0.04000020    0.93121022    0.38000045    -0.34780000
opls_750-278    N    0.95999980    0.56878978    0.38000045    -0.34780000
opls_750-279    N    0.45999980    0.06878978    0.88000045    -0.34780000
opls_750-280    N    0.31878978    0.79000020    0.13000045    -0.34770000
opls_750-281    N    0.81878978    0.29000020    0.63000045    -0.34780000
opls_750-282    N    0.18121022    0.20999980    0.63000045    -0.34780000
opls_750-283    N    0.68121022    0.70999980    0.13000045    -0.34770000
opls_750-284    N    0.45999980    0.56878978    0.11999955    -0.34780000
opls_750-285    N    0.95999980    0.06878978    0.61999955    -0.34780000
opls_750-286    N    0.04000020    0.43121022    0.61999955    -0.34770000
opls_750-287    N    0.54000020    0.93121022    0.11999955    -0.34780000
opls_750-288    N    0.68121022    0.20999980    0.86999955    -0.34770000
opls_750-289    N    0.18121022    0.70999980    0.36999955    -0.34780000
opls_750-290    N    0.81878978    0.79000020    0.36999955    -0.34780000
opls_750-291    N    0.31878978    0.29000020    0.86999955    -0.34780000
