#======================================================================
# Crystal Data Generated By AuToFF
#----------------------------------------------------------------------

data_AuToFF_phase_1

_cell_length_a                         25.8040
_cell_length_b                         6.7470
_cell_length_c                         26.2324
_cell_angle_alpha                      90.00
_cell_angle_beta                       101.74
_cell_angle_gamma                      90.00
_symmetry_space_group_name_H-M_alt     'P 1'
_symmetry_space_group_IT_number        1

loop_
_space_group_symop_operation_xyz
   'x, y, z'

loop_
   _atom_site_label
   _atom_site_type_symbol
   _atom_site_fract_x
   _atom_site_fract_y
   _atom_site_fract_z
   _atom_site_charge
opls_145-0    C    0.10241017    0.50000000    0.08178996    -0.20730000
opls_145-1    C    0.59120010    0.50000000    0.58902015    -0.12940000
opls_145-2    C    0.01314035    0.50000000    0.99783990    -0.20730000
opls_145-3    C    0.52434004    0.50000000    0.49061009    -0.12810000
opls_145-4    C    0.57929991    0.50000000    0.49502997    -0.13310000
opls_166-5    C    0.00293014    0.50000000    0.05213993    0.25940000
opls_145-6    C    0.53624015    0.50000000    0.58459988    -0.13310000
opls_166-7    C    0.11262000    0.50000000    0.02748992    0.25940000
opls_142-8    C    0.44426003    0.50000000    0.52985015    0.06890000
opls_142-9    C    0.06128011    0.50000000    0.92581012    0.03740000
opls_142-10    C    0.67129019    0.50000000    0.54978010    0.06890000
opls_142-11    C    0.05427010    0.50000000    0.15382013    0.03740000
opls_700-12    C    0.61319022    0.50000000    0.54430002    0.06860000
opls_700-13    C    0.04781018    0.50000000    0.09474006    -0.03780000
opls_700-14    C    0.50235992    0.50000000    0.53532983    0.06820000
opls_700-15    C    0.06774003    0.50000000    0.98489018    -0.03780000
opls_543-16    C    0.09634001    0.50000000    0.43012993    0.18080000
opls_543-17    C    0.94909023    0.50000000    0.58291011    0.18080000
opls_543-18    C    0.01921013    0.50000000    0.64949992    0.18080000
opls_543-19    C    0.16645030    0.50000000    0.49672013    0.18080000
opls_716-20    C    0.14167021    0.50000000    0.40914991    -0.17090000
opls_716-21    C    0.92998025    0.50000000    0.62879011    -0.16890000
opls_716-22    C    0.97387016    0.50000000    0.67047021    -0.16890000
opls_716-23    C    0.18556997    0.50000000    0.45084014    -0.17450000
opls_543-24    C    0.99223023    0.50000000    0.42072990    0.20410000
opls_543-25    C    0.93502010    0.50000000    0.48010003    0.20370000
opls_543-26    C    0.12331021    0.50000000    0.65889995    0.20410000
opls_543-27    C    0.18053012    0.50000000    0.59953021    0.20410000
opls_716-28    C    0.93668010    0.50000000    0.39223001    -0.20150000
opls_716-29    C    0.90387012    0.50000000    0.42628006    -0.20150000
opls_716-30    C    0.17887004    0.50000000    0.68739984    -0.20160000
opls_716-31    C    0.21168009    0.50000000    0.65335018    -0.20830000
opls_700-32    C    0.03811017    0.50000000    0.40056985    -0.13670000
opls_700-33    C    0.91676028    0.50000000    0.52647995    -0.13670000
opls_700-34    C    0.07743997    0.50000000    0.67906000    -0.13670000
opls_700-35    C    0.19878017    0.50000000    0.55314990    -0.13670000
opls_700-36    C    0.03086008    0.50000000    0.34339019    0.06750000
opls_700-37    C    0.85889009    0.50000000    0.52185995    0.06750000
opls_700-38    C    0.08468006    0.50000000    0.73624005    0.06750000
opls_700-39    C    0.25666005    0.50000000    0.55776991    0.06740000
opls_145-40    C    0.02733021    0.32025937    0.31608989    -0.12690000
opls_145-41    C    0.83128025    0.67973025    0.51976019    -0.12540000
opls_145-42    C    0.08822031    0.32025937    0.76353997    -0.12690000
opls_145-43    C    0.28426997    0.67973025    0.55987005    -0.12690000
opls_145-44    C    0.02733021    0.67974063    0.31608989    -0.12690000
opls_145-45    C    0.83128025    0.32025937    0.51976019    -0.12540000
opls_145-46    C    0.08822031    0.67974063    0.76353997    -0.12690000
opls_145-47    C    0.28426997    0.32025937    0.55987005    -0.12690000
opls_145-48    C    0.02024001    0.32054987    0.26175987    -0.17020000
opls_145-49    C    0.77633006    0.67941011    0.51552019    -0.17220000
opls_145-50    C    0.09531012    0.32054987    0.81786999    -0.17020000
opls_145-51    C    0.33922015    0.67941011    0.56411005    -0.17480000
opls_145-52    C    0.02024001    0.67943975    0.26175987    -0.17020000
opls_145-53    C    0.77633006    0.32058989    0.51552019    -0.17220000
opls_145-54    C    0.09531012    0.67943975    0.81786999    -0.17020000
opls_145-55    C    0.33922015    0.32058989    0.56411005    -0.17480000
opls_145-56    C    0.01690996    0.50000000    0.23458999    0.19200000
opls_145-57    C    0.74885996    0.50000000    0.51362017    0.19170000
opls_145-58    C    0.09864018    0.50000000    0.84503986    0.19200000
opls_145-59    C    0.36668018    0.50000000    0.56601007    0.19170000
opls_465-60    C    0.91046006    0.50000000    0.08020998    0.45940000
opls_465-61    C    0.20508000    0.50000000    0.99941987    0.46190000
opls_142-62    C    0.60610009    0.50000000    0.18587983    -0.10740000
opls_142-63    C    0.55226015    0.50000000    0.16249986    -0.09630000
opls_142-64    C    0.53667010    0.50000000    0.10816985    -0.09230000
opls_142-65    C    0.57492008    0.50000000    0.07722018    -0.14800000
opls_700-66    C    0.62877009    0.50000000    0.10060014    0.12080000
opls_261-67    C    0.64436013    0.50000000    0.15493016    -0.01230000
opls_142-68    C    0.66702990    0.50000000    0.06963996    -0.09450000
opls_142-69    C    0.72086984    0.50000000    0.09301992    -0.09450000
opls_145-70    C    0.74354015    0.50000000    0.00773985    -0.09450000
opls_700-71    C    0.75912980    0.50000000    0.06206987    0.10940000
opls_145-72    C    0.78180004    0.50000000    0.97678006    -0.09500000
opls_145-73    C    0.83565005    0.50000000    0.00016002    -0.12030000
opls_700-74    C    0.85123002    0.50000000    0.05449004    -0.06760000
opls_145-75    C    0.81297981    0.50000000    0.08544983    -0.13470000
opls_145-76    C    0.50944021    0.50000000    0.89373991    -0.09630000
opls_145-77    C    0.56328999    0.50000000    0.91712999    -0.09500000
opls_145-78    C    0.57888003    0.50000000    0.97146001    -0.09230000
opls_145-79    C    0.54063014    0.50000000    0.00241006    -0.18890000
opls_700-80    C    0.48678013    0.50000000    0.97903010    0.10940000
opls_145-81    C    0.47119008    0.50000000    0.92470009    -0.09450000
opls_142-82    C    0.44852016    0.50000000    0.00998016    -0.09450000
opls_142-83    C    0.39467022    0.50000000    0.98660993    -0.09450000
opls_261-84    C    0.37200999    0.50000000    0.07189000    -0.01230000
opls_700-85    C    0.35641995    0.50000000    0.01755999    0.12080000
opls_142-86    C    0.33375018    0.50000000    0.10285018    -0.10740000
opls_142-87    C    0.27990009    0.50000000    0.07946983    -0.12070000
opls_700-88    C    0.26430997    0.50000000    0.02513008    -0.06760000
opls_142-89    C    0.30257032    0.50000000    0.99418003    -0.13460000
opls_750-90    N    0.69280018    0.50000000    0.50913995    -0.30510000
opls_750-91    N    0.01003006    0.50000000    0.17932982    -0.26230000
opls_750-92    N    0.42274996    0.50000000    0.57048991    -0.30520000
opls_750-93    N    0.10551000    0.50000000    0.90030003    -0.26230000
opls_542-94    N    0.11362995    0.50000000    0.48185015    -0.29060000
opls_542-95    N    0.00192027    0.50000000    0.59778009    -0.29160000
opls_542-96    N    0.98817027    0.50000000    0.47372017    -0.30980000
opls_542-97    N    0.12737026    0.50000000    0.60591007    -0.30930000
opls_545-98    H    0.09032027    0.50000000    0.50603996    0.28850000
opls_545-99    H    0.02523025    0.50000000    0.57358990    0.28850000
opls_547-100    H    0.14302000    0.50000000    0.36822982    0.11820000
opls_547-101    H    0.88884002    0.50000000    0.63190995    0.11860000
opls_547-102    H    0.97253014    0.50000000    0.71140003    0.11750000
opls_547-103    H    0.22671012    0.50000000    0.44771990    0.11860000
opls_547-104    H    0.92368989    0.50000000    0.35032993    0.11740000
opls_547-105    H    0.86112019    0.50000000    0.41527008    0.11780000
opls_547-106    H    0.19186024    0.50000000    0.72929992    0.11740000
opls_547-107    H    0.25442034    0.50000000    0.66436017    0.11800000
opls_146-108    H    0.02971998    0.18103009    0.33696984    0.11350000
opls_146-109    H    0.85237027    0.81899066    0.52127008    0.11520000
opls_146-110    H    0.08583015    0.18103009    0.74266001    0.11340000
opls_146-111    H    0.26317026    0.81899066    0.55836016    0.11550000
opls_146-112    H    0.02971998    0.81895954    0.33696984    0.11340000
opls_146-113    H    0.85237027    0.18100934    0.52127008    0.11510000
opls_146-114    H    0.08583015    0.81895954    0.74266001    0.11340000
opls_146-115    H    0.26317026    0.18100934    0.55836016    0.11550000
opls_146-116    H    0.01693993    0.18227064    0.24052015    0.11820000
opls_146-117    H    0.75483019    0.81759004    0.51367001    0.11840000
opls_146-118    H    0.09861029    0.18227064    0.83911009    0.11820000
opls_146-119    H    0.36071025    0.81759004    0.56595984    0.11610000
opls_146-120    H    0.01693993    0.81772047    0.24052015    0.11820000
opls_146-121    H    0.75483019    0.18240996    0.51367001    0.11840000
opls_146-122    H    0.09861029    0.81772047    0.83911009    0.11820000
opls_146-123    H    0.36071025    0.18240996    0.56595984    0.11610000
opls_146-124    H    0.13825016    0.50000000    0.11355998    0.09230000
opls_146-125    H    0.61658020    0.50000000    0.62737989    0.11310000
opls_146-126    H    0.59553024    0.50000000    0.46005016    0.11170000
opls_144-127    H    0.41946008    0.50000000    0.49111002    0.10380000
opls_545-128    H    0.01826024    0.50000000    0.50229988    0.28840000
opls_144-129    H    0.02148033    0.50000000    0.89970005    0.04520000
opls_146-130    H    0.97729997    0.50000000    0.96606987    0.09230000
opls_146-131    H    0.49896994    0.50000000    0.45224996    0.11070000
opls_146-132    H    0.52001998    0.50000000    0.61958008    0.11050000
opls_144-133    H    0.69609005    0.50000000    0.58851984    0.10380000
opls_545-134    H    0.09728021    0.50000000    0.57732998    0.28840000
opls_144-135    H    0.09406020    0.50000000    0.17993020    0.04520000
opls_144-136    H    0.61812990    0.50000000    0.22780015    0.11710000
opls_144-137    H    0.52274013    0.50000000    0.18638014    0.11810000
opls_144-138    H    0.49513012    0.50000000    0.09013992    0.11760000
opls_144-139    H    0.56289995    0.50000000    0.03529985    0.21130000
opls_146-140    H    0.76978007    0.50000000    0.93486986    0.11750000
opls_146-141    H    0.86516008    0.50000000    0.97628014    0.11770000
opls_146-142    H    0.82500017    0.50000000    0.12736003    0.11750000
opls_146-143    H    0.49742032    0.50000000    0.85183009    0.11750000
opls_146-144    H    0.59281009    0.50000000    0.89325011    0.11810000
opls_146-145    H    0.62042002    0.50000000    0.98948994    0.11760000
opls_144-146    H    0.34577007    0.50000000    0.14476000    0.11750000
opls_144-147    H    0.25039014    0.50000000    0.10335011    0.11760000
opls_144-148    H    0.29054036    0.50000000    0.95227021    0.11750000
opls_144-149    H    0.46120995    0.50000000    0.05422996    0.04050000
opls_144-150    H    0.38198005    0.50000000    0.94236013    0.04050000
opls_146-151    H    0.42734002    0.50000000    0.90566019    0.04050000
opls_144-152    H    0.65433011    0.50000000    0.02539990    0.04050000
opls_144-153    H    0.73357017    0.50000000    0.13727011    0.04050000
opls_146-154    H    0.69970016    0.50000000    0.98869995    0.04050000
opls_473-155    O    0.94720992    0.50000000    0.04763012    -0.28320000
opls_466-156    O    0.92240012    0.50000000    0.12702987    -0.43610000
opls_473-157    O    0.16833991    0.50000000    0.03200013    -0.28320000
opls_466-158    O    0.19315002    0.50000000    0.95259999    -0.43620000
