#======================================================================
# Crystal Data Generated By AuToFF
#----------------------------------------------------------------------

data_AuToFF_phase_1

_cell_length_a                         51.9557
_cell_length_b                         51.9557
_cell_length_c                         3.6135
_cell_angle_alpha                      90.00
_cell_angle_beta                       90.00
_cell_angle_gamma                      120.00
_symmetry_space_group_name_H-M_alt     'P 1'
_symmetry_space_group_IT_number        1

loop_
_space_group_symop_operation_xyz
   'x, y, z'

loop_
   _atom_site_label
   _atom_site_type_symbol
   _atom_site_fract_x
   _atom_site_fract_y
   _atom_site_fract_z
   _atom_site_charge
opls_142-0    C    0.40096997    0.83793985    0.46503113    0.08840000
opls_145-1    C    0.68178989    0.31858990    0.53577971    -0.15240000
opls_145-2    C    0.69701005    0.34869994    0.53555002    0.05880000
opls_145-3    C    0.63584991    0.27088990    0.53369033    0.06170000
opls_145-4    C    0.60804988    0.25509990    0.68335962    -0.23190000
opls_145-5    C    0.59318994    0.22520989    0.67577971    -0.23920000
opls_145-6    C    0.60585006    0.21019999    0.53026982    0.16900000
opls_145-7    C    0.63359997    0.22567994    0.38135879    -0.23920000
opls_145-8    C    0.64823990    0.25557996    0.38016051    -0.23200000
opls_145-9    C    0.42044006    0.86921002    0.47098104    0.01070000
opls_145-10    C    0.44976996    0.88116002    0.54945067    -0.23200000
opls_145-11    C    0.46778996    0.91085002    0.55209077    -0.23920000
opls_145-12    C    0.45673988    0.92889981    0.47641068    0.06670000
opls_145-13    C    0.42758986    0.91715983    0.39841981    -0.23930000
opls_145-14    C    0.40954002    0.88747984    0.39579909    -0.23920000
opls_261-15    C    0.47531986    0.95943990    0.47778885    -0.00810000
opls_261-16    C    0.49088990    0.98501988    0.47835893    -0.00770000
opls_142-17    C    0.16205994    0.56302995    0.46503113    0.08840000
opls_145-18    C    0.68141004    0.36320001    0.53577971    -0.15240000
opls_145-19    C    0.65129990    0.34830990    0.53555002    0.05880000
opls_145-20    C    0.72910991    0.36495999    0.53369033    0.06170000
opls_145-21    C    0.74490001    0.35294997    0.68335962    -0.23200000
opls_145-22    C    0.77478999    0.36797988    0.67577971    -0.23920000
opls_145-23    C    0.78980002    0.39564987    0.53026982    0.16900000
opls_145-24    C    0.77431990    0.40791991    0.38135879    -0.23920000
opls_145-25    C    0.74442000    0.39265998    0.38016051    -0.23200000
opls_145-26    C    0.13079006    0.55122996    0.47098104    0.01070000
opls_145-27    C    0.11883995    0.56860991    0.54945067    -0.23200000
opls_145-28    C    0.08915003    0.55693993    0.55209077    -0.23930000
opls_145-29    C    0.07109997    0.52784001    0.47641068    0.06670000
opls_145-30    C    0.08284010    0.51043006    0.39841981    -0.23930000
opls_145-31    C    0.11252003    0.52206003    0.39579909    -0.23930000
opls_261-32    C    0.04056000    0.51588000    0.47778885    -0.00810000
opls_261-33    C    0.01497997    0.50586999    0.47835893    -0.00770000
opls_142-34    C    0.43696998    0.59902998    0.46503113    0.08840000
opls_145-35    C    0.63679997    0.31820986    0.53577971    -0.15240000
opls_145-36    C    0.65168994    0.30298993    0.53555002    0.05880000
opls_145-37    C    0.63503988    0.36414990    0.53369033    0.06170000
opls_145-38    C    0.64705000    0.39194990    0.68335962    -0.23200000
opls_145-39    C    0.63201996    0.40681001    0.67577971    -0.23920000
opls_145-40    C    0.60435001    0.39414992    0.53026982    0.16900000
opls_145-41    C    0.59208003    0.36639993    0.38135879    -0.23920000
opls_145-42    C    0.60734010    0.35176006    0.38016051    -0.23200000
opls_145-43    C    0.44877007    0.57956002    0.47098104    0.01070000
opls_145-44    C    0.43138998    0.55022985    0.54945067    -0.23200000
opls_145-45    C    0.44306001    0.53221005    0.55209077    -0.23930000
opls_145-46    C    0.47216005    0.54325996    0.47641068    0.06670000
opls_145-47    C    0.48956993    0.57240989    0.39841981    -0.23930000
opls_145-48    C    0.47794003    0.59045991    0.39579909    -0.23930000
opls_261-49    C    0.48412003    0.52467988    0.47778885    -0.00810000
opls_261-50    C    0.49413002    0.50910991    0.47835893    -0.00770000
opls_142-51    C    0.59902991    0.16205993    0.46503113    0.08840000
opls_145-52    C    0.31821000    0.68140987    0.53577971    -0.15240000
opls_145-53    C    0.30298984    0.65129983    0.53555002    0.05880000
opls_145-54    C    0.36414998    0.72910988    0.53369033    0.06170000
opls_145-55    C    0.39195001    0.74489987    0.68335962    -0.23200000
opls_145-56    C    0.40680995    0.77478989    0.67577971    -0.23920000
opls_145-57    C    0.39414994    0.78980001    0.53026982    0.16900000
opls_145-58    C    0.36639992    0.77431983    0.38135879    -0.23920000
opls_145-59    C    0.35176010    0.74442004    0.38016051    -0.23200000
opls_145-60    C    0.57955994    0.13078998    0.47098104    0.01070000
opls_145-61    C    0.55023004    0.11883998    0.54945067    -0.23200000
opls_145-62    C    0.53221004    0.08914998    0.55209077    -0.23930000
opls_145-63    C    0.54326001    0.07109996    0.47641068    0.06670000
opls_145-64    C    0.57241003    0.08283994    0.39841981    -0.23930000
opls_145-65    C    0.59045987    0.11251994    0.39579909    -0.23930000
opls_261-66    C    0.52468014    0.04056010    0.47778885    -0.00810000
opls_261-67    C    0.50910998    0.01497990    0.47835893    -0.00770000
opls_142-68    C    0.83794006    0.43697005    0.46503113    0.08840000
opls_145-69    C    0.31858996    0.63679999    0.53577971    -0.15240000
opls_145-70    C    0.34869999    0.65168988    0.53555002    0.05880000
opls_145-71    C    0.27089009    0.63504001    0.53369033    0.06170000
opls_145-72    C    0.25509999    0.64705003    0.68335962    -0.23190000
opls_145-73    C    0.22520990    0.63201990    0.67577971    -0.23920000
opls_145-74    C    0.21019987    0.60434991    0.53026982    0.16900000
opls_145-75    C    0.22567999    0.59207987    0.38135879    -0.23920000
opls_145-76    C    0.25558000    0.60734002    0.38016051    -0.23200000
opls_145-77    C    0.86920994    0.44877004    0.47098104    0.01070000
opls_145-78    C    0.88115994    0.43138987    0.54945067    -0.23190000
opls_145-79    C    0.91084997    0.44306007    0.55209077    -0.23920000
opls_145-80    C    0.92890003    0.47215999    0.47641068    0.06670000
opls_145-81    C    0.91715990    0.48956994    0.39841981    -0.23930000
opls_145-82    C    0.88747997    0.47793997    0.39579909    -0.23930000
opls_261-83    C    0.95944000    0.48412000    0.47778885    -0.00810000
opls_261-84    C    0.98502003    0.49413001    0.47835893    -0.00770000
opls_142-85    C    0.56303002    0.40097002    0.46503113    0.08850000
opls_145-86    C    0.36319992    0.68178992    0.53577971    -0.15240000
opls_145-87    C    0.34830995    0.69700984    0.53555002    0.05880000
opls_145-88    C    0.36496001    0.63584988    0.53369033    0.06170000
opls_145-89    C    0.35294989    0.60804988    0.68335962    -0.23200000
opls_145-90    C    0.36798004    0.59318999    0.67577971    -0.23920000
opls_145-91    C    0.39564988    0.60584986    0.53026982    0.16900000
opls_145-92    C    0.40791986    0.63359985    0.38135879    -0.23920000
opls_145-93    C    0.39265990    0.64823994    0.38016051    -0.23200000
opls_145-94    C    0.55122993    0.42043998    0.47098104    0.01070000
opls_145-95    C    0.56860991    0.44976993    0.54945067    -0.23200000
opls_145-96    C    0.55693999    0.46778995    0.55209077    -0.23920000
opls_145-97    C    0.52783995    0.45674004    0.47641068    0.06670000
opls_145-98    C    0.51042996    0.42758989    0.39841981    -0.23930000
opls_145-99    C    0.52205986    0.40953987    0.39579909    -0.23910000
opls_261-100    C    0.51587986    0.47531990    0.47778885    -0.00810000
opls_261-101    C    0.50586987    0.49088987    0.47835893    -0.00770000
opls_750-102    N    0.82053992    0.41001992    0.53137955    -0.21390000
opls_750-103    N    0.58998005    0.41051998    0.53137955    -0.21380000
opls_750-104    N    0.58947992    0.17945988    0.53137955    -0.21390000
opls_750-105    N    0.17945997    0.58997986    0.53137955    -0.21390000
opls_750-106    N    0.41001995    0.58948002    0.53137955    -0.21390000
opls_750-107    N    0.41051997    0.82053990    0.53137955    -0.21390000
opls_144-108    H    0.37854985    0.82995984    0.40932060    0.09410000
opls_146-109    H    0.69344989    0.30719996    0.53558046    0.19170000
opls_146-110    H    0.59781000    0.26555996    0.81657949    0.19160000
opls_146-111    H    0.57187000    0.21362993    0.79250035    0.19160000
opls_146-112    H    0.64382001    0.21503008    0.25305106    0.19170000
opls_146-113    H    0.66891004    0.26647007    0.24627093    0.19160000
opls_146-114    H    0.45878985    0.86762984    0.60927079    0.19170000
opls_146-115    H    0.49030992    0.91972990    0.61351045    0.19170000
opls_146-116    H    0.41883999    0.93093982    0.33858863    0.19160000
opls_146-117    H    0.38705002    0.87876998    0.33372077    0.19160000
opls_144-118    H    0.17003997    0.54858989    0.40932060    0.09400000
opls_146-119    H    0.69279988    0.38624993    0.53558046    0.19170000
opls_146-120    H    0.73443987    0.33224988    0.81657949    0.19160000
opls_146-121    H    0.78636997    0.35823990    0.79250035    0.19160000
opls_146-122    H    0.78496994    0.42879002    0.25305106    0.19170000
opls_146-123    H    0.73353001    0.40243996    0.24627093    0.19160000
opls_146-124    H    0.13236999    0.59115999    0.60927079    0.19170000
opls_146-125    H    0.08026991    0.57057990    0.61351045    0.19170000
opls_146-126    H    0.06906003    0.48789998    0.33858863    0.19160000
opls_146-127    H    0.12123006    0.50828004    0.33372077    0.19160000
opls_144-128    H    0.45141007    0.62145005    0.40932060    0.09400000
opls_146-129    H    0.61374993    0.30654989    0.53558046    0.19170000
opls_146-130    H    0.66775002    0.40218993    0.81657949    0.19160000
opls_146-131    H    0.64175992    0.42812995    0.79250035    0.19160000
opls_146-132    H    0.57120985    0.35617989    0.25305106    0.19170000
opls_146-133    H    0.59755995    0.33108997    0.24627093    0.19160000
opls_146-134    H    0.40884005    0.54120995    0.60927079    0.19180000
opls_146-135    H    0.42942006    0.50968997    0.61351045    0.19170000
opls_146-136    H    0.51210005    0.58115998    0.33858863    0.19170000
opls_146-137    H    0.49171992    0.61294998    0.33372077    0.19170000
opls_144-138    H    0.62145004    0.17003993    0.40932060    0.09400000
opls_146-139    H    0.30655011    0.69280004    0.53558046    0.19170000
opls_146-140    H    0.40219000    0.73444004    0.81657949    0.19160000
opls_146-141    H    0.42812989    0.78636985    0.79250035    0.19160000
opls_146-142    H    0.35617999    0.78496992    0.25305106    0.19170000
opls_146-143    H    0.33108996    0.73352993    0.24627093    0.19170000
opls_146-144    H    0.54121004    0.13236994    0.60927079    0.19170000
opls_146-145    H    0.50969008    0.08027010    0.61351045    0.19160000
opls_146-146    H    0.58115990    0.06905996    0.33858863    0.19160000
opls_146-147    H    0.61294998    0.12123002    0.33372077    0.19160000
opls_144-148    H    0.82995992    0.45140989    0.40932060    0.09410000
opls_146-149    H    0.30720001    0.61374985    0.53558046    0.19170000
opls_146-150    H    0.26556002    0.66774990    0.81657949    0.19160000
opls_146-151    H    0.21362992    0.64175988    0.79250035    0.19160000
opls_146-152    H    0.21503006    0.57120998    0.25305106    0.19180000
opls_146-153    H    0.26646999    0.59756004    0.24627093    0.19160000
opls_146-154    H    0.86763001    0.40884001    0.60927079    0.19170000
opls_146-155    H    0.91972998    0.42941987    0.61351045    0.19160000
opls_146-156    H    0.93093997    0.51210002    0.33858863    0.19170000
opls_146-157    H    0.87876994    0.49171996    0.33372077    0.19160000
opls_144-158    H    0.54858993    0.37854995    0.40932060    0.09400000
opls_146-159    H    0.38624996    0.69344989    0.53558046    0.19170000
opls_146-160    H    0.33224987    0.59780984    0.81657949    0.19160000
opls_146-161    H    0.35824008    0.57187005    0.79250035    0.19160000
opls_146-162    H    0.42879003    0.64381989    0.25305106    0.19180000
opls_146-163    H    0.40244005    0.66891003    0.24627093    0.19160000
opls_146-164    H    0.59115995    0.45879005    0.60927079    0.19180000
opls_146-165    H    0.57057994    0.49031003    0.61351045    0.19160000
opls_146-166    H    0.48789995    0.41884002    0.33858863    0.19160000
opls_146-167    H    0.50828008    0.38705002    0.33372077    0.19160000
