#======================================================================
# Crystal Data Generated By AuToFF
#----------------------------------------------------------------------

data_AuToFF_phase_1

_cell_length_a                         32.8287
_cell_length_b                         35.3794
_cell_length_c                         3.9215
_cell_angle_alpha                      90.00
_cell_angle_beta                       82.80
_cell_angle_gamma                      90.00
_symmetry_space_group_name_H-M_alt     'P 1'
_symmetry_space_group_IT_number        1

loop_
_space_group_symop_operation_xyz
   'x, y, z'

loop_
   _atom_site_label
   _atom_site_type_symbol
   _atom_site_fract_x
   _atom_site_fract_y
   _atom_site_fract_z
   _atom_site_charge
opls_145-0    C    0.97979010    0.93170009    0.46825923    -0.07990000
opls_700-1    C    0.95807009    0.96533011    0.43362943    0.02450000
opls_700-2    C    0.91601995    0.96531993    0.37538105    0.03710000
opls_700-3    C    0.89132993    0.92997988    0.34992983    0.07920000
opls_523-4    C    0.90674991    0.89994997    0.13749878    -0.09750000
opls_522-5    C    0.88568991    0.86583012    0.13262033    -0.14700000
opls_521-6    C    0.84768990    0.86175995    0.32751929    0.22500000
opls_700-7    C    0.82989016    0.89222005    0.52177053    0.03210000
opls_523-8    C    0.85179008    0.92622006    0.53539061    -0.04850000
opls_523-9    C    0.28846020    0.38685987    0.71125899    -0.04650000
opls_522-10    C    0.26950006    0.35316003    0.70048939    -0.02630000
opls_521-11    C    0.29055994    0.32156000    0.50408936    0.13540000
opls_700-12    C    0.27005020    0.28495989    0.50083021    -0.05010000
opls_166-13    C    0.23030016    0.28118001    0.67444957    0.23820000
opls_145-14    C    0.22644014    0.34805000    0.87776887    0.10240000
opls_523-15    C    0.28947011    0.25366993    0.32756042    -0.18700000
opls_145-16    C    0.47979010    0.43170009    0.46825923    -0.07990000
opls_700-17    C    0.45807009    0.46533011    0.43362943    0.02450000
opls_700-18    C    0.41601995    0.46531993    0.37538105    0.03720000
opls_700-19    C    0.39132993    0.42997988    0.34992983    0.07920000
opls_523-20    C    0.40674991    0.39994997    0.13749878    -0.09750000
opls_522-21    C    0.38568991    0.36583012    0.13262033    -0.14710000
opls_521-22    C    0.34768990    0.36175995    0.32751929    0.22500000
opls_700-23    C    0.32989016    0.39222005    0.52177053    0.03210000
opls_523-24    C    0.35179008    0.42622006    0.53539061    -0.04850000
opls_523-25    C    0.78846020    0.88685987    0.71125899    -0.04650000
opls_522-26    C    0.76950006    0.85316003    0.70048939    -0.02630000
opls_521-27    C    0.79055994    0.82156000    0.50408936    0.13540000
opls_700-28    C    0.77005020    0.78495989    0.50083021    -0.05010000
opls_166-29    C    0.73030016    0.78118001    0.67444957    0.23820000
opls_145-30    C    0.72644014    0.84805000    0.87776887    0.10240000
opls_523-31    C    0.78947011    0.75366993    0.32756042    -0.18710000
opls_145-32    C    0.02021020    0.93170009    0.53174077    -0.07990000
opls_700-33    C    0.04193022    0.96533011    0.56637057    0.02450000
opls_700-34    C    0.08398005    0.96531993    0.62461895    0.03710000
opls_700-35    C    0.10867007    0.92997988    0.65007017    0.07920000
opls_523-36    C    0.09325013    0.89994997    0.86249865    -0.09750000
opls_522-37    C    0.11431009    0.86583012    0.86737967    -0.14710000
opls_521-38    C    0.15231010    0.86175995    0.67248071    0.22500000
opls_700-39    C    0.17011015    0.89222005    0.47822947    0.03210000
opls_523-40    C    0.14820992    0.92622006    0.46460939    -0.04850000
opls_523-41    C    0.71154011    0.38685987    0.28874101    -0.04650000
opls_522-42    C    0.73049994    0.35316003    0.29951061    -0.02630000
opls_521-43    C    0.70944006    0.32156000    0.49591064    0.13540000
opls_700-44    C    0.72995011    0.28495989    0.49916979    -0.05010000
opls_166-45    C    0.76970015    0.28118001    0.32555043    0.23820000
opls_145-46    C    0.77355986    0.34805000    0.12223113    0.10240000
opls_523-47    C    0.71053020    0.25366993    0.67243958    -0.18710000
opls_145-48    C    0.52021020    0.43170009    0.53174077    -0.07990000
opls_700-49    C    0.54192991    0.46533011    0.56637057    0.02450000
opls_700-50    C    0.58398005    0.46531993    0.62461895    0.03710000
opls_700-51    C    0.60867007    0.42997988    0.65007017    0.07920000
opls_523-52    C    0.59325013    0.39994997    0.86249865    -0.09750000
opls_522-53    C    0.61431009    0.36583012    0.86737967    -0.14710000
opls_521-54    C    0.65231010    0.36175995    0.67248071    0.22500000
opls_700-55    C    0.67011015    0.39222005    0.47822947    0.03210000
opls_523-56    C    0.64820992    0.42622006    0.46460939    -0.04850000
opls_523-57    C    0.21154011    0.88685987    0.28874101    -0.04650000
opls_522-58    C    0.23049994    0.85316003    0.29951061    -0.02630000
opls_521-59    C    0.20944006    0.82156000    0.49591064    0.13540000
opls_700-60    C    0.22995011    0.78495989    0.49916979    -0.05010000
opls_166-61    C    0.26970015    0.78118001    0.32555043    0.23820000
opls_145-62    C    0.27355986    0.84805000    0.12223113    0.10240000
opls_523-63    C    0.21053020    0.75366993    0.67243958    -0.18710000
opls_145-64    C    0.02021020    0.06829991    0.53174077    -0.07990000
opls_700-65    C    0.04193022    0.03466989    0.56637057    0.02450000
opls_700-66    C    0.08398005    0.03468007    0.62461895    0.03710000
opls_700-67    C    0.10867007    0.07002012    0.65007017    0.07920000
opls_523-68    C    0.09325013    0.10005003    0.86249865    -0.09750000
opls_522-69    C    0.11431009    0.13416988    0.86737967    -0.14710000
opls_521-70    C    0.15231010    0.13824005    0.67248071    0.22500000
opls_700-71    C    0.17011015    0.10777995    0.47822947    0.03210000
opls_523-72    C    0.14820992    0.07377994    0.46460939    -0.04850000
opls_523-73    C    0.71154011    0.61314013    0.28874101    -0.04650000
opls_522-74    C    0.73049994    0.64683997    0.29951061    -0.02630000
opls_521-75    C    0.70944006    0.67844000    0.49591064    0.13540000
opls_700-76    C    0.72995011    0.71504011    0.49916979    -0.05010000
opls_166-77    C    0.76970015    0.71881999    0.32555043    0.23830000
opls_145-78    C    0.77355986    0.65195000    0.12223113    0.10240000
opls_523-79    C    0.71053020    0.74633007    0.67243958    -0.18710000
opls_145-80    C    0.52021020    0.56829991    0.53174077    -0.07990000
opls_700-81    C    0.54192991    0.53466989    0.56637057    0.02450000
opls_700-82    C    0.58398005    0.53468007    0.62461895    0.03710000
opls_700-83    C    0.60867007    0.57002012    0.65007017    0.07920000
opls_523-84    C    0.59325013    0.60005003    0.86249865    -0.09750000
opls_522-85    C    0.61431009    0.63416988    0.86737967    -0.14700000
opls_521-86    C    0.65231010    0.63824005    0.67248071    0.22500000
opls_700-87    C    0.67011015    0.60777995    0.47822947    0.03220000
opls_523-88    C    0.64820992    0.57377994    0.46460939    -0.04850000
opls_523-89    C    0.21154011    0.11314013    0.28874101    -0.04650000
opls_522-90    C    0.23049994    0.14683997    0.29951061    -0.02630000
opls_521-91    C    0.20944006    0.17844000    0.49591064    0.13540000
opls_700-92    C    0.22995011    0.21504011    0.49916979    -0.05010000
opls_166-93    C    0.26970015    0.21881999    0.32555043    0.23820000
opls_145-94    C    0.27355986    0.15195000    0.12223113    0.10240000
opls_523-95    C    0.21053020    0.24633007    0.67243958    -0.18710000
opls_145-96    C    0.97979010    0.06829991    0.46825923    -0.07990000
opls_700-97    C    0.95807009    0.03466989    0.43362943    0.02450000
opls_700-98    C    0.91601995    0.03468007    0.37538105    0.03710000
opls_700-99    C    0.89132993    0.07002012    0.34992983    0.07920000
opls_523-100    C    0.90674991    0.10005003    0.13749878    -0.09750000
opls_522-101    C    0.88568991    0.13416988    0.13262033    -0.14710000
opls_521-102    C    0.84768990    0.13824005    0.32751929    0.22500000
opls_700-103    C    0.82989016    0.10777995    0.52177053    0.03210000
opls_523-104    C    0.85179008    0.07377994    0.53539061    -0.04850000
opls_523-105    C    0.28846020    0.61314013    0.71125899    -0.04650000
opls_522-106    C    0.26950006    0.64683997    0.70048939    -0.02630000
opls_521-107    C    0.29055994    0.67844000    0.50408936    0.13550000
opls_700-108    C    0.27005020    0.71504011    0.50083021    -0.05010000
opls_166-109    C    0.23030016    0.71881999    0.67444957    0.23830000
opls_145-110    C    0.22644014    0.65195000    0.87776887    0.10250000
opls_523-111    C    0.28947011    0.74633007    0.32756042    -0.18710000
opls_145-112    C    0.47979010    0.56829991    0.46825923    -0.07990000
opls_700-113    C    0.45807009    0.53466989    0.43362943    0.02450000
opls_700-114    C    0.41601995    0.53468007    0.37538105    0.03720000
opls_700-115    C    0.39132993    0.57002012    0.34992983    0.07920000
opls_523-116    C    0.40674991    0.60005003    0.13749878    -0.09750000
opls_522-117    C    0.38568991    0.63416988    0.13262033    -0.14710000
opls_521-118    C    0.34768990    0.63824005    0.32751929    0.22500000
opls_700-119    C    0.32989016    0.60777995    0.52177053    0.03210000
opls_523-120    C    0.35179008    0.57377994    0.53539061    -0.04850000
opls_523-121    C    0.78846020    0.11314013    0.71125899    -0.04640000
opls_522-122    C    0.76950006    0.14683997    0.70048939    -0.02630000
opls_521-123    C    0.79055994    0.17844000    0.50408936    0.13540000
opls_700-124    C    0.77005020    0.21504011    0.50083021    -0.05010000
opls_166-125    C    0.73030016    0.21881999    0.67444957    0.23820000
opls_145-126    C    0.72644014    0.15195000    0.87776887    0.10240000
opls_523-127    C    0.78947011    0.24633007    0.32756042    -0.18710000
opls_700-128    C    0.97900005    0.00000000    0.46583029    0.00100000
opls_700-129    C    0.47900005    0.50000000    0.46583029    0.00100000
opls_700-130    C    0.02099995    0.00000000    0.53416971    0.00100000
opls_700-131    C    0.52099995    0.50000000    0.53416971    0.00100000
opls_145-132    C    0.60387002    0.50000000    0.65430090    -0.08500000
opls_145-133    C    0.10387002    0.00000000    0.65430090    -0.08510000
opls_145-134    C    0.39612998    0.50000000    0.34569910    -0.08510000
opls_145-135    C    0.89612998    0.00000000    0.34569910    -0.08510000
opls_146-136    H    0.96408003    0.90326009    0.44402891    0.04820000
opls_526-137    H    0.93712011    0.90321995    0.96418015    0.04820000
opls_525-138    H    0.89970008    0.84137012    0.96876044    0.04820000
opls_526-139    H    0.83764012    0.95084004    0.69640002    0.04820000
opls_526-140    H    0.27254023    0.41112003    0.86619990    0.04820000
opls_526-141    H    0.32184016    0.25664002    0.18620103    0.04820000
opls_146-142    H    0.46408003    0.40326009    0.44402891    0.04820000
opls_526-143    H    0.43712011    0.40321995    0.96418015    0.04820000
opls_525-144    H    0.39970008    0.34137012    0.96876044    0.04820000
opls_526-145    H    0.33764012    0.45084004    0.69640002    0.04820000
opls_526-146    H    0.77254023    0.91112003    0.86619990    0.04820000
opls_526-147    H    0.82184016    0.75664002    0.18620103    0.04820000
opls_146-148    H    0.03592000    0.90326009    0.55596852    0.04820000
opls_526-149    H    0.06288019    0.90321995    0.03581985    0.04820000
opls_525-150    H    0.10030023    0.84137012    0.03123956    0.04820000
opls_526-151    H    0.16236018    0.95084004    0.30359998    0.04820000
opls_526-152    H    0.72746008    0.41112003    0.13380010    0.04820000
opls_526-153    H    0.67816014    0.25664002    0.81379897    0.04820000
opls_146-154    H    0.53592000    0.40326009    0.55596852    0.04820000
opls_526-155    H    0.56288019    0.40321995    0.03581985    0.04820000
opls_525-156    H    0.60030023    0.34137012    0.03123956    0.04820000
opls_526-157    H    0.66236018    0.45084004    0.30359998    0.04820000
opls_526-158    H    0.22746008    0.91112003    0.13380010    0.04830000
opls_526-159    H    0.17816014    0.75664002    0.81379897    0.04820000
opls_146-160    H    0.03592000    0.09673991    0.55596852    0.04820000
opls_526-161    H    0.06288019    0.09678005    0.03581985    0.04820000
opls_525-162    H    0.10030023    0.15862988    0.03123956    0.04820000
opls_526-163    H    0.16236018    0.04915996    0.30359998    0.04820000
opls_526-164    H    0.72746008    0.58887997    0.13380010    0.04820000
opls_526-165    H    0.67816014    0.74335998    0.81379897    0.04820000
opls_146-166    H    0.53592000    0.59673991    0.55596852    0.04820000
opls_526-167    H    0.56288019    0.59678005    0.03581985    0.04820000
opls_525-168    H    0.60030023    0.65862988    0.03123956    0.04820000
opls_526-169    H    0.66236018    0.54915996    0.30359998    0.04820000
opls_526-170    H    0.22746008    0.08887997    0.13380010    0.04820000
opls_526-171    H    0.17816014    0.24335998    0.81379897    0.04820000
opls_146-172    H    0.96408003    0.09673991    0.44402891    0.04820000
opls_526-173    H    0.93712011    0.09678005    0.96418015    0.04820000
opls_525-174    H    0.89970008    0.15862988    0.96876044    0.04820000
opls_526-175    H    0.83764012    0.04915996    0.69640002    0.04820000
opls_526-176    H    0.27254023    0.58887997    0.86619990    0.04820000
opls_526-177    H    0.32184016    0.74335998    0.18620103    0.04820000
opls_146-178    H    0.46408003    0.59673991    0.44402891    0.04820000
opls_526-179    H    0.43712011    0.59678005    0.96418015    0.04820000
opls_525-180    H    0.39970008    0.65862988    0.96876044    0.04820000
opls_526-181    H    0.33764012    0.54915996    0.69640002    0.04820000
opls_526-182    H    0.77254023    0.08887997    0.86619990    0.04820000
opls_526-183    H    0.82184016    0.24335998    0.18620103    0.04830000
opls_146-184    H    0.63733009    0.50062013    0.70422919    0.04820000
opls_146-185    H    0.13733009    0.00062013    0.70422919    0.04820000
opls_146-186    H    0.36266991    0.50062013    0.29577081    0.04820000
opls_146-187    H    0.86266991    0.00062013    0.29577081    0.04820000
opls_146-188    H    0.20965013    0.37282006    0.01839057    0.02600000
opls_146-189    H    0.70965013    0.87282006    0.01839057    0.02600000
opls_146-190    H    0.79034987    0.37282006    0.98160943    0.02610000
opls_146-191    H    0.29034987    0.87282006    0.98160943    0.02600000
opls_146-192    H    0.79034987    0.62717994    0.98160943    0.02600000
opls_146-193    H    0.29034987    0.12717994    0.98160943    0.02600000
opls_146-194    H    0.20965013    0.62717994    0.01839057    0.02600000
opls_146-195    H    0.70965013    0.12717994    0.01839057    0.02600000
opls_520-196    N    0.32665006    0.32638004    0.33032864    -0.28710000
opls_520-197    N    0.82665006    0.82638004    0.33032864    -0.28710000
opls_520-198    N    0.67334998    0.32638004    0.66966879    -0.28700000
opls_520-199    N    0.17334998    0.82638004    0.66966879    -0.28710000
opls_520-200    N    0.67334998    0.67361996    0.66966879    -0.28700000
opls_520-201    N    0.17334998    0.17361996    0.66966879    -0.28710000
opls_520-202    N    0.32665006    0.67361996    0.33032864    -0.28700000
opls_520-203    N    0.82665006    0.17361996    0.33032864    -0.28710000
opls_180-204    O    0.20893017    0.31090013    0.85616026    -0.20120000
opls_180-205    O    0.70893017    0.81090013    0.85616026    -0.20130000
opls_180-206    O    0.79107014    0.31090013    0.14383974    -0.20130000
opls_180-207    O    0.29107014    0.81090013    0.14383974    -0.20130000
opls_180-208    O    0.79107014    0.68909987    0.14383974    -0.20120000
opls_180-209    O    0.29107014    0.18909987    0.14383974    -0.20130000
opls_180-210    O    0.20893017    0.68909987    0.85616026    -0.20130000
opls_180-211    O    0.70893017    0.18909987    0.85616026    -0.20130000
