#======================================================================
# Crystal Data Generated By AuToFF
#----------------------------------------------------------------------

data_AuToFF_phase_1

_cell_length_a                         14.9674
_cell_length_b                         14.9674
_cell_length_c                         3.2382
_cell_angle_alpha                      90.00
_cell_angle_beta                       90.00
_cell_angle_gamma                      120.00
_symmetry_space_group_name_H-M_alt     'P 1'
_symmetry_space_group_IT_number        1

loop_
_space_group_symop_operation_xyz
   'x, y, z'

loop_
   _atom_site_label
   _atom_site_type_symbol
   _atom_site_fract_x
   _atom_site_fract_y
   _atom_site_fract_z
   _atom_site_charge
opls_238-0    N    0.45966999    0.95221009    0.00000000    -0.13100000
opls_238-1    N    0.04778965    0.50745980    0.00000000    -0.13100000
opls_238-2    N    0.49254035    0.54033011    0.00000000    -0.13100000
opls_238-3    N    0.54033001    0.04778991    0.00000000    -0.13100000
opls_238-4    N    0.95221035    0.49254020    0.00000000    -0.13100000
opls_238-5    N    0.50745965    0.45966989    0.00000000    -0.13100000
opls_142-6    C    0.52445019    0.12978017    0.00000000    0.05170000
opls_145-7    C    0.40547970    0.77406989    0.00000000    -0.10460000
opls_280-8    C    0.29870989    0.73721026    0.00000000    0.23140000
opls_142-9    C    0.87022000    0.39466987    0.00000000    0.05170000
opls_145-10    C    0.22592985    0.63140991    0.00000000    -0.10460000
opls_280-11    C    0.26279041    0.56150021    0.00000000    0.23140000
opls_142-12    C    0.60532980    0.47554997    0.00000000    0.05170000
opls_145-13    C    0.36858979    0.59452020    0.00000000    -0.10460000
opls_280-14    C    0.43850009    0.70129030    0.00000000    0.23140000
opls_142-15    C    0.47554981    0.87021983    0.00000000    0.05170000
opls_145-16    C    0.59452030    0.22593011    0.00000000    -0.10460000
opls_280-17    C    0.70129011    0.26278974    0.00000000    0.23140000
opls_142-18    C    0.12978000    0.60533013    0.00000000    0.05170000
opls_145-19    C    0.77407015    0.36859009    0.00000000    -0.10460000
opls_280-20    C    0.73720959    0.43849979    0.00000000    0.23140000
opls_142-21    C    0.39467020    0.52445003    0.00000000    0.05170000
opls_145-22    C    0.63141021    0.40547980    0.00000000    -0.10460000
opls_280-23    C    0.56149991    0.29870970    0.00000000    0.23140000
opls_144-24    H    0.44864025    0.11157023    0.00000000    0.10950000
opls_910-25    H    0.38960979    0.94301023    0.00000000    0.24780000
opls_144-26    H    0.88843017    0.33706985    0.00000000    0.10950000
opls_910-27    H    0.05699003    0.44660029    0.00000000    0.24780000
opls_144-28    H    0.66293025    0.55135992    0.00000000    0.10950000
opls_910-29    H    0.55339989    0.61039025    0.00000000    0.24780000
opls_144-30    H    0.55135975    0.88842977    0.00000000    0.10950000
opls_910-31    H    0.61039021    0.05698977    0.00000000    0.24780000
opls_144-32    H    0.11156983    0.66293015    0.00000000    0.10950000
opls_910-33    H    0.94300997    0.55339971    0.00000000    0.24780000
opls_144-34    H    0.33706975    0.44864008    0.00000000    0.10950000
opls_910-35    H    0.44660011    0.38960975    0.00000000    0.24780000
opls_281-36    O    0.26851989    0.79415992    0.00000000    -0.40480000
opls_281-37    O    0.20583968    0.47435958    0.00000000    -0.40480000
opls_281-38    O    0.52564005    0.73147973    0.00000000    -0.40480000
opls_281-39    O    0.73148011    0.20584008    0.00000000    -0.40480000
opls_281-40    O    0.79415994    0.52563965    0.00000000    -0.40480000
opls_281-41    O    0.47435995    0.26852027    0.00000000    -0.40480000
