#======================================================================
# Crystal Data Generated By AuToFF
#----------------------------------------------------------------------

data_AuToFF_phase_1

_cell_length_a                         17.9401
_cell_length_b                         3.5300
_cell_length_c                         19.0282
_cell_angle_alpha                      90.00
_cell_angle_beta                       114.77
_cell_angle_gamma                      90.00
_symmetry_space_group_name_H-M_alt     'P 1'
_symmetry_space_group_IT_number        1

loop_
_space_group_symop_operation_xyz
   'x, y, z'

loop_
   _atom_site_label
   _atom_site_type_symbol
   _atom_site_fract_x
   _atom_site_fract_y
   _atom_site_fract_z
   _atom_site_charge
opls_700-0    C    0.53070019    0.50000000    0.60659966    -0.23750000
opls_700-1    C    0.54758029    0.50000000    0.48290008    -0.22860000
opls_700-2    C    0.40740025    0.50000000    0.47956002    -0.25800000
opls_280-3    C    0.44425988    0.50000000    0.56203008    0.24370000
opls_280-4    C    0.58092024    0.50000000    0.56545000    0.24420000
opls_280-5    C    0.46047016    0.50000000    0.44116992    0.24410000
opls_700-6    C    0.79350038    0.50000000    0.07178025    0.05380000
opls_700-7    C    0.78150984    0.50000000    0.19971004    0.06130000
opls_700-8    C    0.92176984    0.50000000    0.19724971    0.05170000
opls_145-9    C    0.88027986    0.50000000    0.11515990    -0.10180000
opls_145-10    C    0.74797011    0.50000000    0.11769026    -0.14660000
opls_145-11    C    0.86854983    0.50000000    0.23538978    -0.14770000
opls_700-12    C    0.75442022    0.50000000    0.98806990    0.05670000
opls_700-13    C    0.73197986    0.50000000    0.24332987    0.05870000
opls_700-14    C    0.01026001    0.50000000    0.23911009    0.05700000
opls_145-15    C    0.66737030    0.50000000    0.94493971    -0.19770000
opls_145-16    C    0.76666976    0.50000000    0.32594983    -0.19770000
opls_145-17    C    0.06562983    0.50000000    0.20273988    -0.10700000
opls_142-18    C    0.32007002    0.50000000    0.44055990    0.09670000
opls_142-19    C    0.60273996    0.50000000    0.44655996    0.09530000
opls_142-20    C    0.56208002    0.50000000    0.68896959    0.09670000
opls_145-21    C    0.05038971    0.50000000    0.32160966    -0.22240000
opls_145-22    C    0.64425997    0.50000000    0.20826014    -0.19960000
opls_145-23    C    0.79880030    0.50000000    0.94084957    -0.19960000
opls_145-24    C    0.76027989    0.50000000    0.85923956    -0.22960000
opls_145-25    C    0.59641007    0.50000000    0.25115999    -0.22960000
opls_145-26    C    0.13595004    0.50000000    0.36347989    -0.23120000
opls_145-27    C    0.15195986    0.50000000    0.24461994    -0.20030000
opls_145-28    C    0.71946011    0.50000000    0.36911012    -0.23070000
opls_145-29    C    0.62851989    0.50000000    0.86365959    -0.23070000
opls_916-30    C    0.67432989    0.50000000    0.81891985    0.17530000
opls_916-31    C    0.63300001    0.50000000    0.33248988    0.17440000
opls_916-32    C    0.18914993    0.50000000    0.32605979    0.17370000
opls_281-33    O    0.39862004    0.50000000    0.59734983    -0.51150000
opls_281-34    O    0.65749030    0.50000000    0.60337015    -0.50080000
opls_281-35    O    0.42913012    0.50000000    0.36859965    -0.40760000
opls_146-36    H    0.91538989    0.50000000    0.08559018    0.20380000
opls_146-37    H    0.68666007    0.50000000    0.09017979    0.20400000
opls_146-38    H    0.89469982    0.50000000    0.29301980    0.20490000
opls_146-39    H    0.62798028    0.50000000    0.97062996    0.20480000
opls_146-40    H    0.82808020    0.50000000    0.35887002    0.20490000
opls_146-41    H    0.04524993    0.50000000    0.14427008    0.20470000
opls_144-42    H    0.66366975    0.50000000    0.48187972    0.10030000
opls_144-43    H    0.52024000    0.50000000    0.71202993    0.10030000
opls_146-44    H    0.01960976    0.50000000    0.35568970    0.20510000
opls_146-45    H    0.61142976    0.50000000    0.14996976    0.20480000
opls_146-46    H    0.86108995    0.50000000    0.96392959    0.20470000
opls_146-47    H    0.79555991    0.50000000    0.82865990    0.20450000
opls_146-48    H    0.53370993    0.50000000    0.22262974    0.20450000
opls_146-49    H    0.15844992    0.50000000    0.42225991    0.20460000
opls_146-50    H    0.18855983    0.50000000    0.21538012    0.20450000
opls_146-51    H    0.74963991    0.50000000    0.42789998    0.20450000
opls_146-52    H    0.56601006    0.50000000    0.83789989    0.20460000
opls_144-53    H    0.28929974    0.50000000    0.47479967    0.10050000
opls_910-54    H    0.30208015    0.50000000    0.33025989    0.24510000
opls_910-55    H    0.52416012    0.50000000    0.33625996    0.24510000
opls_910-56    H    0.68168023    0.50000000    0.71781007    0.24510000
opls_238-57    N    0.27291002    0.50000000    0.36290980    -0.32440000
opls_238-58    N    0.58216014    0.50000000    0.36926002    -0.32400000
opls_238-59    N    0.64233999    0.50000000    0.74011975    -0.32400000
