#======================================================================
# Crystal Data Generated By AuToFF
#----------------------------------------------------------------------

data_AuToFF_phase_1

_cell_length_a                         18.5600
_cell_length_b                         18.5600
_cell_length_c                         3.5000
_cell_angle_alpha                      90.00
_cell_angle_beta                       90.00
_cell_angle_gamma                      120.00
_symmetry_space_group_name_H-M_alt     'P 1'
_symmetry_space_group_IT_number        1

loop_
_space_group_symop_operation_xyz
   'x, y, z'

loop_
   _atom_site_label
   _atom_site_type_symbol
   _atom_site_fract_x
   _atom_site_fract_y
   _atom_site_fract_z
   _atom_site_charge
opls_142-0    C    0.15901037    0.61139035    0.50000000    0.06390000
opls_142-1    C    0.38861005    0.54761989    0.50000000    0.06390000
opls_142-2    C    0.45238043    0.84099038    0.50000000    0.06390000
opls_145-3    C    0.96966027    0.40851019    0.50000000    -0.16960000
opls_145-4    C    0.59149002    0.56115030    0.50000000    -0.16840000
opls_145-5    C    0.43885002    0.03034013    0.50000000    -0.16840000
opls_523-6    C    0.88318995    0.36819024    0.50000000    -0.11730000
opls_523-7    C    0.63180992    0.51500022    0.50000000    -0.11730000
opls_523-8    C    0.48499991    0.11681016    0.50000000    -0.11730000
opls_145-9    C    0.56618979    0.02422009    0.50000000    -0.16160000
opls_145-10    C    0.97578036    0.54197020    0.50000000    -0.16160000
opls_145-11    C    0.45803017    0.43381033    0.50000000    -0.16160000
opls_523-12    C    0.61239035    0.11065031    0.50000000    -0.11730000
opls_523-13    C    0.88934998    0.50173983    0.50000000    -0.11730000
opls_523-14    C    0.49825967    0.38760986    0.50000000    -0.11730000
opls_700-15    C    0.39107986    0.75204981    0.50000000    0.06390000
opls_700-16    C    0.24794968    0.63902975    0.50000000    0.06390000
opls_700-17    C    0.36097014    0.60891981    0.50000000    0.06390000
opls_145-18    C    0.41850979    0.69443983    0.50000000    -0.15320000
opls_145-19    C    0.30555983    0.72407010    0.50000000    -0.16490000
opls_145-20    C    0.27592984    0.58149007    0.50000000    -0.15320000
opls_531-21    C    0.62130001    0.24895993    0.50000000    0.37470000
opls_531-22    C    0.75103999    0.37232999    0.50000000    0.37470000
opls_531-23    C    0.62767011    0.37870013    0.50000000    0.37480000
opls_145-24    C    0.47872019    0.98344037    0.50000000    0.20040000
opls_145-25    C    0.01656031    0.49528010    0.50000000    0.20030000
opls_145-26    C    0.50471982    0.52128015    0.50000000    0.20030000
opls_700-27    C    0.57226998    0.15771991    0.50000000    0.00890000
opls_700-28    C    0.84227984    0.41454997    0.50000000    0.00890000
opls_700-29    C    0.58545018    0.42773011    0.50000000    0.00870000
opls_750-30    N    0.10505016    0.53261003    0.50000000    -0.28850000
opls_750-31    N    0.46739044    0.57244036    0.50000000    -0.28830000
opls_750-32    N    0.42756025    0.89495024    0.50000000    -0.28850000
opls_520-33    N    0.58274017    0.29452021    0.50000000    -0.41840000
opls_520-34    N    0.70547990    0.28820980    0.50000000    -0.41860000
opls_520-35    N    0.71179017    0.41726999    0.50000000    -0.41850000
opls_146-36    H    0.00048004    0.37203011    0.50000000    0.12180000
opls_146-37    H    0.62797011    0.62844023    0.50000000    0.12050000
opls_146-38    H    0.37155996    0.99951970    0.50000000    0.12050000
opls_526-39    H    0.84860976    0.30084991    0.50000000    0.12210000
opls_526-40    H    0.69915000    0.54776983    0.50000000    0.12210000
opls_526-41    H    0.45223013    0.15139021    0.50000000    0.12020000
opls_146-42    H    0.59987995    0.99082025    0.50000000    0.11570000
opls_146-43    H    0.00917968    0.60905980    0.50000000    0.11570000
opls_146-44    H    0.39093982    0.40011995    0.50000000    0.11570000
opls_526-45    H    0.67961014    0.14044980    0.50000000    0.12010000
opls_526-46    H    0.85954981    0.53915997    0.50000000    0.12020000
opls_526-47    H    0.46084005    0.32039023    0.50000000    0.12010000
opls_146-48    H    0.28352996    0.76823988    0.50000000    0.11860000
opls_146-49    H    0.23177020    0.51530009    0.50000000    0.11920000
opls_146-50    H    0.48469997    0.71646998    0.50000000    0.11920000
opls_144-51    H    0.51758029    0.85967028    0.50000000    0.12010000
opls_144-52    H    0.14032999    0.65790998    0.50000000    0.12010000
opls_144-53    H    0.34208972    0.48241974    0.50000000    0.12010000
