#======================================================================
# Crystal Data Generated By AuToFF
#----------------------------------------------------------------------

data_AuToFF_phase_1

_cell_length_a                         25.4000
_cell_length_b                         25.4000
_cell_length_c                         7.9400
_cell_angle_alpha                      90.00
_cell_angle_beta                       90.00
_cell_angle_gamma                      90.00
_symmetry_space_group_name_H-M_alt     'P 1'
_symmetry_space_group_IT_number        1

loop_
_space_group_symop_operation_xyz
   'x, y, z'

loop_
   _atom_site_label
   _atom_site_type_symbol
   _atom_site_fract_x
   _atom_site_fract_y
   _atom_site_fract_z
   _atom_site_charge
Cu2+-0    Cu    0.34219016    0.68192992    0.52307053    0.66590000
Cu2+-1    Cu    0.29722008    0.70815984    0.95121033    0.66580000
opls_750-2    N    0.31995000    0.03727008    0.36554030    -0.33010000
opls_750-3    N    0.36085984    0.32620000    0.52946977    -0.33290000
opls_542-4    N    0.39444016    0.63600000    0.63789043    -0.36300000
opls_542-5    N    0.28845000    0.62450984    0.53448992    -0.36340000
opls_542-6    N    0.39372008    0.74139016    0.52051008    -0.38580000
opls_542-7    N    0.29135984    0.72647008    0.39844962    -0.38500000
opls_750-8    N    0.69977992    0.69734016    0.56928967    -0.33210000
opls_750-9    N    0.98497992    0.66619016    0.34844962    -0.32990000
opls_750-10    N    0.27862008    0.06382992    0.94380982    -0.32820000
opls_750-11    N    0.31955984    0.35275984    0.10772040    -0.33010000
opls_542-12    N    0.34807992    0.66362008    0.07577960    -0.38500000
opls_542-13    N    0.24569016    0.64870000    0.95390050    -0.38580000
opls_542-14    N    0.35095000    0.76557992    0.93972040    -0.36340000
opls_542-15    N    0.24494016    0.75405984    0.83641058    -0.39080000
opls_750-16    N    0.65435984    0.72410984    0.12656045    -0.32990000
opls_750-17    N    0.93954016    0.69292008    0.90560957    -0.33210000
opls_700-18    C    0.33310000    0.86985984    0.34289043    0.06250000
opls_145-19    C    0.37214016    0.90107008    0.26600000    -0.12860000
opls_145-20    C    0.28667992    0.89510000    0.39637028    -0.12920000
opls_145-21    C    0.36790984    0.95639016    0.26426952    -0.18500000
opls_145-22    C    0.28169016    0.94994016    0.38939043    -0.16190000
opls_145-23    C    0.32330000    0.98135984    0.33358060    0.19310000
opls_142-24    C    0.35517992    0.07337008    0.33528967    0.07410000
opls_700-25    C    0.34700000    0.12880984    0.39085013    0.05870000
opls_145-26    C    0.30234016    0.14372992    0.48413980    -0.12940000
opls_145-27    C    0.38512008    0.16727992    0.35417003    -0.13020000
opls_145-28    C    0.29600000    0.19589016    0.53920025    -0.13020000
opls_145-29    C    0.37875984    0.21945984    0.40928967    -0.13010000
opls_700-30    C    0.33419016    0.23432992    0.50292947    0.06010000
opls_142-31    C    0.32640000    0.28947008    0.56188035    0.07370000
opls_145-32    C    0.35750984    0.38134016    0.57344962    0.19270000
opls_145-33    C    0.32067992    0.40162992    0.68870025    -0.17960000
opls_145-34    C    0.39284016    0.41627992    0.49789043    -0.16810000
opls_145-35    C    0.31797992    0.45607008    0.72009950    -0.12700000
opls_145-36    C    0.38987992    0.47060984    0.52820025    -0.13020000
opls_700-37    C    0.35127008    0.49187008    0.63626952    0.06300000
opls_700-38    C    0.34430000    0.55115984    0.64948992    -0.10830000
opls_543-39    C    0.38869016    0.58249016    0.67642947    0.18440000
opls_543-40    C    0.29570984    0.57347992    0.59515995    0.18430000
opls_716-41    C    0.43747008    0.56225984    0.74330982    -0.17290000
opls_716-42    C    0.24727008    0.54540984    0.59062972    -0.16730000
opls_543-43    C    0.44749016    0.64767992    0.66857053    0.18430000
opls_716-44    C    0.47342008    0.60209016    0.73839043    -0.17460000
opls_543-45    C    0.23537992    0.62737992    0.48801008    0.18430000
opls_716-46    C    0.20937992    0.57955000    0.53020025    -0.16540000
opls_700-47    C    0.47357992    0.69477008    0.63303023    -0.08180000
opls_700-48    C    0.21162008    0.66859016    0.39397985    -0.08180000
opls_543-49    C    0.44582008    0.74010000    0.57590050    0.18430000
opls_543-50    C    0.38480000    0.79335984    0.46936020    0.18430000
opls_543-51    C    0.29947992    0.77730984    0.33647985    0.18540000
opls_543-52    C    0.24119016    0.71210000    0.34264987    0.18580000
opls_700-53    C    0.53245000    0.69430000    0.62382997    0.07090000
opls_716-54    C    0.46860000    0.79115000    0.56329975    -0.16450000
opls_716-55    C    0.43005000    0.82464016    0.50340050    -0.16570000
opls_700-56    C    0.34034016    0.81175000    0.37830982    -0.08300000
opls_716-57    C    0.25684016    0.79185984    0.22676952    -0.16860000
opls_716-58    C    0.22107008    0.75160000    0.22973048    -0.16720000
opls_145-59    C    0.56372992    0.72907992    0.71774937    -0.12920000
opls_145-60    C    0.55747992    0.65897008    0.51367003    -0.11540000
opls_145-61    C    0.61857008    0.72965984    0.69708942    -0.16630000
opls_145-62    C    0.61215000    0.65877008    0.49576952    -0.16510000
opls_145-63    C    0.64337008    0.69460984    0.58653023    0.19460000
opls_142-64    C    0.72942992    0.66652992    0.47855038    0.07070000
opls_700-65    C    0.78697008    0.67460984    0.46825063    0.06930000
opls_145-66    C    0.81795000    0.63930000    0.37475945    -0.12960000
opls_145-67    C    0.81135984    0.71752992    0.54760957    -0.12550000
opls_145-68    C    0.87242992    0.64665984    0.36141940    -0.12820000
opls_145-69    C    0.86582008    0.72470000    0.53512972    -0.12660000
opls_700-70    C    0.89680000    0.68940984    0.44184005    0.06100000
opls_142-71    C    0.95430984    0.69752992    0.43386020    0.07010000
opls_145-72    C    0.04157008    0.66977992    0.34148992    0.19460000
opls_145-73    C    0.06900000    0.71475000    0.39521033    -0.16580000
opls_145-74    C    0.07052992    0.62645984    0.28372040    -0.17210000
opls_145-75    C    0.12372008    0.71395000    0.40748992    -0.12730000
opls_145-76    C    0.12579016    0.62624016    0.29300000    -0.13020000
opls_700-77    C    0.15300984    0.66910000    0.36373048    0.07000000
opls_700-78    C    0.28817008    0.89814016    0.83704030    0.06340000
opls_145-79    C    0.32145984    0.93392992    0.75318010    -0.12700000
opls_145-80    C    0.24960000    0.91940984    0.94523048    -0.13020000
opls_145-81    C    0.31877008    0.98837992    0.78456045    -0.17860000
opls_145-82    C    0.24664016    0.97374016    0.97551008    -0.16730000
opls_145-83    C    0.28195000    0.00867992    0.89985013    0.19270000
opls_142-84    C    0.31307008    0.10055984    0.91132997    0.07370000
opls_700-85    C    0.30529016    0.15570000    0.97026952    0.05990000
opls_145-86    C    0.26072008    0.17057008    0.06393955    -0.13010000
opls_145-87    C    0.34347992    0.19414016    0.93396977    -0.13020000
opls_145-88    C    0.25437992    0.22275000    0.11906045    -0.13010000
opls_145-89    C    0.33715000    0.24629016    0.98904030    -0.12910000
opls_700-90    C    0.29250000    0.26122008    0.08236020    0.05870000
opls_142-91    C    0.28432992    0.31665000    0.13794962    0.07420000
opls_145-92    C    0.31622992    0.40865984    0.13975063    0.19310000
opls_145-93    C    0.27164016    0.43362008    0.20927960    -0.17870000
opls_145-94    C    0.35782008    0.44009016    0.08386020    -0.16180000
opls_145-95    C    0.26740984    0.48895000    0.20765995    -0.12850000
opls_145-96    C    0.35282992    0.49492992    0.07700000    -0.12920000
opls_700-97    C    0.30642008    0.52017008    0.13063980    0.06250000
opls_700-98    C    0.29917992    0.57827992    0.09534005    -0.08790000
opls_543-99    C    0.34000984    0.61272992    0.13734005    0.18540000
opls_543-100    C    0.25467008    0.59669016    0.00462972    0.18440000
opls_716-101    C    0.38262992    0.59817008    0.24713980    -0.16860000
opls_716-102    C    0.20940000    0.56542992    0.97077960    -0.16520000
opls_543-103    C    0.39817992    0.67805984    0.13200000    0.18560000
opls_716-104    C    0.41830000    0.63852008    0.24484005    -0.16730000
opls_543-105    C    0.19354016    0.65000984    0.89902015    0.18430000
opls_716-106    C    0.17077992    0.59895000    0.91147985    -0.16440000
opls_700-107    C    0.42772008    0.72162008    0.08096977    -0.08190000
opls_700-108    C    0.16574016    0.69537992    0.84241058    -0.08810000
opls_543-109    C    0.40399016    0.76277992    0.98667003    0.18430000
opls_543-110    C    0.34370000    0.81657008    0.87860957    0.18430000
opls_543-111    C    0.25072992    0.80752992    0.79727960    0.18440000
opls_543-112    C    0.19184016    0.74242992    0.80650000    0.18430000
opls_700-113    C    0.48632992    0.72112992    0.11132997    0.07000000
opls_716-114    C    0.42997992    0.81060984    0.94437028    -0.16520000
opls_716-115    C    0.39210984    0.84467992    0.88334005    -0.16730000
opls_700-116    C    0.29514016    0.83885000    0.82388035    -0.10820000
opls_716-117    C    0.20190984    0.82775984    0.73068010    -0.17290000
opls_716-118    C    0.16589016    0.78800984    0.73662972    -0.17540000
opls_145-119    C    0.51354016    0.76400984    0.18194962    -0.13000000
opls_145-120    C    0.51564016    0.67629016    0.06763980    -0.12490000
opls_145-121    C    0.56879016    0.76382008    0.19127960    -0.17030000
opls_145-122    C    0.57037008    0.67550000    0.08001008    -0.16580000
opls_145-123    C    0.59777008    0.72049016    0.13363980    0.19460000
opls_142-124    C    0.68502008    0.69277992    0.04107053    0.07010000
opls_700-125    C    0.74252008    0.70094016    0.03291058    0.06090000
opls_145-126    C    0.77350000    0.66562008    0.93971033    -0.12640000
opls_145-127    C    0.76689016    0.74372992    0.11307053    -0.12730000
opls_145-128    C    0.82795000    0.67280000    0.92710957    -0.12560000
opls_145-129    C    0.82135984    0.75110984    0.09959950    -0.12960000
opls_700-130    C    0.85234016    0.71577008    0.00624055    0.07010000
opls_142-131    C    0.90987008    0.72385000    0.99586020    0.07070000
opls_145-132    C    0.99595000    0.69562008    0.88850000    0.19450000
opls_145-133    C    0.02715984    0.73142008    0.97941940    -0.16700000
opls_145-134    C    0.02075984    0.66055984    0.77798992    -0.16630000
opls_145-135    C    0.08184016    0.73119016    0.96169018    -0.11540000
opls_145-136    C    0.07560000    0.66110000    0.75751008    -0.12920000
opls_700-137    C    0.10687992    0.69585000    0.85158942    0.07090000
opls_146-138    H    0.40712008    0.88282008    0.21473048    0.12180000
opls_146-139    H    0.25537008    0.87257008    0.45370025    0.11810000
opls_146-140    H    0.40007992    0.97907008    0.21320025    0.11830000
opls_146-141    H    0.24695984    0.96855000    0.44124055    0.12150000
opls_144-142    H    0.39194016    0.06350000    0.27454030    0.12240000
opls_144-143    H    0.29032992    0.29862992    0.62797985    0.12200000
opls_146-144    H    0.29442992    0.37580984    0.75659950    0.12420000
opls_146-145    H    0.42194016    0.40115984    0.41093955    0.12110000
opls_146-146    H    0.28982008    0.47012008    0.81174055    0.12220000
opls_146-147    H    0.41770000    0.49587992    0.46480982    0.12130000
opls_547-148    H    0.44560000    0.52259016    0.78584005    0.11920000
opls_547-149    H    0.23807992    0.50572992    0.62701008    0.09790000
opls_547-150    H    0.51437008    0.59827992    0.77413980    0.11890000
opls_547-151    H    0.16812992    0.56982008    0.52179975    0.12590000
opls_547-152    H    0.50770984    0.80394016    0.59639043    0.12280000
opls_547-153    H    0.43525984    0.86657008    0.48970025    0.12050000
opls_547-154    H    0.25227992    0.82802008    0.15781990    0.12420000
opls_547-155    H    0.18415000    0.75165000    0.16261965    0.12600000
opls_146-156    H    0.54575000    0.75567992    0.80737028    0.11840000
opls_146-157    H    0.53465000    0.63150984    0.43974937    0.11940000
opls_146-158    H    0.64222008    0.75720984    0.76840050    0.12150000
opls_146-159    H    0.62902992    0.63142008    0.40724055    0.10290000
opls_144-160    H    0.71295984    0.63434016    0.40723048    0.10000000
opls_146-161    H    0.04870984    0.75037008    0.43056045    0.11280000
opls_146-162    H    0.04992008    0.59235984    0.23565995    0.12360000
opls_146-163    H    0.14347992    0.74879016    0.45106045    0.09670000
opls_146-164    H    0.14707992    0.59207008    0.24915995    0.12200000
opls_144-165    H    0.97040984    0.72890984    0.51002015    0.12360000
opls_146-166    H    0.34962992    0.91987992    0.66158060    0.12220000
opls_146-167    H    0.22180984    0.89414016    0.00875063    0.12130000
opls_146-168    H    0.34502008    0.01419016    0.71662972    0.12420000
opls_146-169    H    0.21755984    0.98887008    0.06253023    0.12160000
opls_144-170    H    0.34912992    0.09139016    0.84515995    0.12260000
opls_144-171    H    0.24757008    0.32652992    0.19872040    0.12220000
opls_146-172    H    0.23950000    0.41094016    0.26047985    0.12040000
opls_146-173    H    0.39252992    0.42149016    0.03188035    0.12160000
opls_146-174    H    0.23247008    0.50719016    0.25915995    0.11970000
opls_146-175    H    0.38412992    0.51747992    0.01971033    0.11810000
opls_547-176    H    0.38722008    0.56197008    0.31582997    0.11810000
opls_547-177    H    0.20420000    0.52349016    0.98425945    0.12040000
opls_547-178    H    0.45517008    0.63850984    0.31224055    0.12590000
opls_547-179    H    0.13164016    0.58619016    0.87871033    0.10260000
opls_547-180    H    0.47122008    0.82037992    0.95301008    0.12050000
opls_547-181    H    0.40132008    0.88432992    0.84665995    0.09780000
opls_547-182    H    0.19380984    0.86739016    0.68774937    0.11890000
opls_547-183    H    0.12490000    0.79185000    0.70126952    0.11710000
opls_146-184    H    0.49224016    0.79820984    0.22560957    0.11720000
opls_146-185    H    0.49590984    0.64144016    0.02396977    0.09670000
opls_146-186    H    0.58939016    0.79794016    0.23923048    0.12360000
opls_146-187    H    0.59067008    0.63987992    0.04472040    0.11280000
opls_144-188    H    0.66892008    0.66139016    0.96496977    0.12360000
opls_146-189    H    0.01027992    0.75875000    0.06800000    0.10240000
opls_146-190    H    0.99710984    0.63304016    0.70655038    0.12150000
opls_146-191    H    0.10465984    0.75862992    0.03567003    0.12190000
opls_146-192    H    0.09359016    0.63450984    0.66787028    0.11880000
opls_144-193    H    0.92632992    0.75615000    0.06672040    0.10000000
opls_146-194    H    0.74369016    0.77112008    0.18675945    0.11400000
opls_146-195    H    0.78822992    0.74512008    0.62079975    0.11610000
opls_146-196    H    0.83942992    0.78412992    0.16365995    0.11860000
opls_146-197    H    0.88387008    0.75762008    0.59986020    0.11400000
opls_146-198    H    0.75545000    0.63267008    0.87515995    0.11670000
opls_146-199    H    0.79987992    0.60632008    0.31051008    0.11740000
opls_146-200    H    0.85107992    0.64519016    0.85402015    0.11540000
opls_146-201    H    0.89562008    0.61930984    0.28762972    0.11860000
opls_146-202    H    0.21972008    0.23304016    0.19129975    0.11710000
opls_146-203    H    0.26134016    0.20615000    0.61158942    0.11670000
opls_146-204    H    0.36694016    0.27522008    0.95782997    0.11620000
opls_146-205    H    0.40842992    0.24845000    0.37786020    0.11700000
opls_146-206    H    0.37812992    0.18385984    0.86156045    0.11670000
opls_146-207    H    0.41977992    0.15699016    0.28194962    0.11710000
opls_146-208    H    0.23105000    0.14157992    0.09538035    0.11700000
opls_146-209    H    0.27255984    0.11480000    0.51532997    0.11400000
