#======================================================================
# Crystal Data Generated By AuToFF
#----------------------------------------------------------------------

data_AuToFF_phase_1

_cell_length_a                         28.6414
_cell_length_b                         29.1579
_cell_length_c                         5.1221
_cell_angle_alpha                      90.00
_cell_angle_beta                       90.00
_cell_angle_gamma                      90.00
_symmetry_space_group_name_H-M_alt     'P 1'
_symmetry_space_group_IT_number        1

loop_
_space_group_symop_operation_xyz
   'x, y, z'

loop_
   _atom_site_label
   _atom_site_type_symbol
   _atom_site_fract_x
   _atom_site_fract_y
   _atom_site_fract_z
   _atom_site_charge
opls_145-0    C    0.34981007    0.88938984    0.13382987    0.03370000
opls_145-1    C    0.34817013    0.86610010    0.93895082    -0.22230000
opls_145-2    C    0.32430992    0.82443009    0.92014018    -0.22240000
opls_145-3    C    0.30148003    0.80517013    0.09514066    0.02960000
opls_145-4    C    0.30575984    0.82652009    0.29214970    -0.22120000
opls_145-5    C    0.32910996    0.86827001    0.31107944    -0.22150000
opls_700-6    C    0.27407005    0.76219995    0.07313992    -0.03570000
opls_145-7    C    0.30177016    0.71931003    0.05832959    0.02900000
opls_145-8    C    0.37132996    0.93597001    0.15169950    0.03320000
opls_145-9    C    0.30645988    0.69631009    0.86530915    -0.22070000
opls_145-10    C    0.33222992    0.65577013    0.85252924    -0.22300000
opls_145-11    C    0.35542013    0.63797016    0.03141094    0.03510000
opls_145-12    C    0.35199013    0.66221984    0.22316042    -0.22240000
opls_145-13    C    0.32552983    0.70242987    0.23613947    -0.22300000
opls_145-14    C    0.38238983    0.59417996    0.01785986    0.03430000
opls_145-15    C    0.38395993    0.56375013    0.19032038    -0.23600000
opls_145-16    C    0.40717004    0.52173991    0.17362019    -0.22340000
opls_145-17    C    0.42898985    0.50886003    0.98328030    0.00630000
opls_145-18    C    0.42834010    0.53945997    0.81261006    -0.23240000
opls_145-19    C    0.40575007    0.58168009    0.83003065    -0.23240000
opls_145-20    C    0.40927992    0.94957010    0.02238925    -0.22940000
opls_145-21    C    0.42798990    0.99375984    0.03647918    -0.23150000
opls_145-22    C    0.40955994    0.02533996    0.18181020    0.00880000
opls_145-23    C    0.37213998    0.01177005    0.31189942    -0.23140000
opls_145-24    C    0.35307003    0.96796992    0.29616954    -0.23150000
opls_142-25    C    0.45187002    0.46371995    0.95729095    0.08470000
opls_142-26    C    0.42820009    0.07244006    0.20204018    0.08310000
opls_145-27    C    0.48130015    0.39265997    0.10917007    0.14000000
opls_145-28    C    0.48046010    0.36537988    0.92560083    -0.22300000
opls_145-29    C    0.50241992    0.32256987    0.92388083    -0.22380000
opls_145-30    C    0.52550993    0.30616985    0.10491010    0.06810000
opls_145-31    C    0.52531999    0.33295985    0.28919974    -0.22340000
opls_145-32    C    0.50316011    0.37557986    0.29133949    -0.22300000
opls_136-33    C    0.55439992    0.26287010    0.09475020    -0.33700000
opls_145-34    C    0.52519011    0.21984985    0.08231975    0.06710000
opls_145-35    C    0.52761003    0.19158993    0.90319010    -0.23600000
opls_145-36    C    0.50525009    0.14906012    0.90178052    -0.23560000
opls_145-37    C    0.48005998    0.13369001    0.07865914    0.14320000
opls_145-38    C    0.47737017    0.16220990    0.25814998    -0.23640000
opls_145-39    C    0.49959010    0.20487004    0.25906952    -0.23600000
opls_145-40    C    0.65018993    0.11061016    0.13382987    0.03370000
opls_145-41    C    0.65182987    0.13389990    0.93895082    -0.22230000
opls_145-42    C    0.67569008    0.17556991    0.92014018    -0.22240000
opls_145-43    C    0.69851997    0.19482987    0.09514066    0.02960000
opls_145-44    C    0.69424016    0.17347991    0.29214970    -0.22120000
opls_145-45    C    0.67089004    0.13172999    0.31107944    -0.22150000
opls_700-46    C    0.72592995    0.23780005    0.07313992    -0.03570000
opls_145-47    C    0.69822984    0.28068997    0.05832959    0.02890000
opls_145-48    C    0.62867004    0.06402999    0.15169950    0.03320000
opls_145-49    C    0.69354012    0.30368991    0.86530915    -0.22070000
opls_145-50    C    0.66777008    0.34422987    0.85252924    -0.22300000
opls_145-51    C    0.64457987    0.36202984    0.03141094    0.03510000
opls_145-52    C    0.64800987    0.33778016    0.22316042    -0.22240000
opls_145-53    C    0.67447017    0.29757013    0.23613947    -0.22300000
opls_145-54    C    0.61761017    0.40582004    0.01785986    0.03430000
opls_145-55    C    0.61604007    0.43624987    0.19032038    -0.23600000
opls_145-56    C    0.59282996    0.47826009    0.17362019    -0.22340000
opls_145-57    C    0.57101015    0.49113997    0.98328030    0.00630000
opls_145-58    C    0.57165990    0.46054003    0.81261006    -0.23240000
opls_145-59    C    0.59424993    0.41831991    0.83003065    -0.23240000
opls_145-60    C    0.59072008    0.05042990    0.02238925    -0.22940000
opls_145-61    C    0.57201010    0.00624016    0.03647918    -0.23150000
opls_145-62    C    0.59044006    0.97466004    0.18181020    0.00880000
opls_145-63    C    0.62786002    0.98822995    0.31189942    -0.23150000
opls_145-64    C    0.64692997    0.03203008    0.29616954    -0.23150000
opls_142-65    C    0.54812998    0.53628005    0.95729095    0.08470000
opls_142-66    C    0.57179991    0.92755994    0.20204018    0.08310000
opls_145-67    C    0.51869985    0.60734003    0.10917007    0.14000000
opls_145-68    C    0.51953990    0.63462012    0.92560083    -0.22310000
opls_145-69    C    0.49758008    0.67743013    0.92388083    -0.22380000
opls_145-70    C    0.47449007    0.69383015    0.10491010    0.06810000
opls_145-71    C    0.47468001    0.66704015    0.28919974    -0.22340000
opls_145-72    C    0.49683989    0.62442014    0.29133949    -0.22300000
opls_136-73    C    0.44560008    0.73712990    0.09475020    -0.33700000
opls_145-74    C    0.47480989    0.78015015    0.08231975    0.06710000
opls_145-75    C    0.47238997    0.80841007    0.90319010    -0.23600000
opls_145-76    C    0.49474991    0.85093988    0.90178052    -0.23560000
opls_145-77    C    0.51994002    0.86630999    0.07865914    0.14320000
opls_145-78    C    0.52262983    0.83779010    0.25814998    -0.23640000
opls_145-79    C    0.50040990    0.79512996    0.25906952    -0.23600000
opls_145-80    C    0.84981007    0.11061016    0.13382987    0.03370000
opls_145-81    C    0.84817013    0.13389990    0.93895082    -0.22230000
opls_145-82    C    0.82430992    0.17556991    0.92014018    -0.22240000
opls_145-83    C    0.80148003    0.19482987    0.09514066    0.02960000
opls_145-84    C    0.80575984    0.17347991    0.29214970    -0.22120000
opls_145-85    C    0.82910996    0.13172999    0.31107944    -0.22150000
opls_700-86    C    0.77407005    0.23780005    0.07313992    -0.03570000
opls_145-87    C    0.80177016    0.28068997    0.05832959    0.02890000
opls_145-88    C    0.87132996    0.06402999    0.15169950    0.03320000
opls_145-89    C    0.80645988    0.30368991    0.86530915    -0.22070000
opls_145-90    C    0.83222992    0.34422987    0.85252924    -0.22300000
opls_145-91    C    0.85542013    0.36202984    0.03141094    0.03510000
opls_145-92    C    0.85199013    0.33778016    0.22316042    -0.22240000
opls_145-93    C    0.82552983    0.29757013    0.23613947    -0.22300000
opls_145-94    C    0.88238983    0.40582004    0.01785986    0.03430000
opls_145-95    C    0.88395993    0.43624987    0.19032038    -0.23600000
opls_145-96    C    0.90717004    0.47826009    0.17362019    -0.22340000
opls_145-97    C    0.92898985    0.49113997    0.98328030    0.00630000
opls_145-98    C    0.92834010    0.46054003    0.81261006    -0.23240000
opls_145-99    C    0.90575007    0.41831991    0.83003065    -0.23240000
opls_145-100    C    0.90927992    0.05042990    0.02238925    -0.22940000
opls_145-101    C    0.92798990    0.00624016    0.03647918    -0.23150000
opls_145-102    C    0.90955994    0.97466004    0.18181020    0.00880000
opls_145-103    C    0.87213998    0.98822995    0.31189942    -0.23150000
opls_145-104    C    0.85307003    0.03203008    0.29616954    -0.23150000
opls_142-105    C    0.95187002    0.53628005    0.95729095    0.08470000
opls_142-106    C    0.92820009    0.92755994    0.20204018    0.08310000
opls_145-107    C    0.98130015    0.60734003    0.10917007    0.14000000
opls_145-108    C    0.98046010    0.63462012    0.92560083    -0.22310000
opls_145-109    C    0.00241992    0.67743013    0.92388083    -0.22380000
opls_145-110    C    0.02550993    0.69383015    0.10491010    0.06810000
opls_145-111    C    0.02531999    0.66704015    0.28919974    -0.22340000
opls_145-112    C    0.00316011    0.62442014    0.29133949    -0.22300000
opls_136-113    C    0.05439992    0.73712990    0.09475020    -0.33700000
opls_145-114    C    0.02519011    0.78015015    0.08231975    0.06710000
opls_145-115    C    0.02761003    0.80841007    0.90319010    -0.23600000
opls_145-116    C    0.00525009    0.85093988    0.90178052    -0.23550000
opls_145-117    C    0.98005998    0.86630999    0.07865914    0.14320000
opls_145-118    C    0.97737017    0.83779010    0.25814998    -0.23640000
opls_145-119    C    0.99959010    0.79512996    0.25906952    -0.23600000
opls_145-120    C    0.15018993    0.88938984    0.13382987    0.03370000
opls_145-121    C    0.15182987    0.86610010    0.93895082    -0.22230000
opls_145-122    C    0.17569008    0.82443009    0.92014018    -0.22240000
opls_145-123    C    0.19851997    0.80517013    0.09514066    0.02960000
opls_145-124    C    0.19424016    0.82652009    0.29214970    -0.22120000
opls_145-125    C    0.17089004    0.86827001    0.31107944    -0.22150000
opls_700-126    C    0.22592995    0.76219995    0.07313992    -0.03570000
opls_145-127    C    0.19822984    0.71931003    0.05832959    0.02890000
opls_145-128    C    0.12867004    0.93597001    0.15169950    0.03320000
opls_145-129    C    0.19354012    0.69631009    0.86530915    -0.22060000
opls_145-130    C    0.16777008    0.65577013    0.85252924    -0.22300000
opls_145-131    C    0.14457987    0.63797016    0.03141094    0.03510000
opls_145-132    C    0.14800987    0.66221984    0.22316042    -0.22240000
opls_145-133    C    0.17447017    0.70242987    0.23613947    -0.22290000
opls_145-134    C    0.11761017    0.59417996    0.01785986    0.03430000
opls_145-135    C    0.11604007    0.56375013    0.19032038    -0.23600000
opls_145-136    C    0.09282996    0.52173991    0.17362019    -0.22340000
opls_145-137    C    0.07101015    0.50886003    0.98328030    0.00630000
opls_145-138    C    0.07165990    0.53945997    0.81261006    -0.23240000
opls_145-139    C    0.09424993    0.58168009    0.83003065    -0.23240000
opls_145-140    C    0.09072008    0.94957010    0.02238925    -0.22940000
opls_145-141    C    0.07201010    0.99375984    0.03647918    -0.23150000
opls_145-142    C    0.09044006    0.02533996    0.18181020    0.00880000
opls_145-143    C    0.12786002    0.01177005    0.31189942    -0.23150000
opls_145-144    C    0.14692997    0.96796992    0.29616954    -0.23150000
opls_142-145    C    0.04812998    0.46371995    0.95729095    0.08470000
opls_142-146    C    0.07179991    0.07244006    0.20204018    0.08310000
opls_145-147    C    0.01869985    0.39265997    0.10917007    0.14000000
opls_145-148    C    0.01953990    0.36537988    0.92560083    -0.22310000
opls_145-149    C    0.99758008    0.32256987    0.92388083    -0.22380000
opls_145-150    C    0.97449007    0.30616985    0.10491010    0.06810000
opls_145-151    C    0.97468001    0.33295985    0.28919974    -0.22340000
opls_145-152    C    0.99683989    0.37557986    0.29133949    -0.22300000
opls_136-153    C    0.94560008    0.26287010    0.09475020    -0.33700000
opls_145-154    C    0.97480989    0.21984985    0.08231975    0.06710000
opls_145-155    C    0.97238997    0.19158993    0.90319010    -0.23600000
opls_145-156    C    0.99474991    0.14906012    0.90178052    -0.23560000
opls_145-157    C    0.01994002    0.13369001    0.07865914    0.14320000
opls_145-158    C    0.02262983    0.16220990    0.25814998    -0.23640000
opls_145-159    C    0.00040990    0.20487004    0.25906952    -0.23590000
opls_750-160    N    0.45957006    0.43704999    0.11828937    -0.20600000
opls_750-161    N    0.45960987    0.08860000    0.07213057    -0.19630000
opls_750-162    N    0.54042994    0.56295001    0.11828937    -0.20600000
opls_750-163    N    0.54039013    0.91140000    0.07213057    -0.19620000
opls_750-164    N    0.95957006    0.56295001    0.11828937    -0.20590000
opls_750-165    N    0.95960987    0.91140000    0.07213057    -0.19630000
opls_750-166    N    0.04042994    0.43704999    0.11828937    -0.20600000
opls_750-167    N    0.04039013    0.08860000    0.07213057    -0.19630000
opls_146-168    H    0.36418995    0.88060011    0.79948068    0.20500000
opls_146-169    H    0.32309000    0.80746007    0.76854025    0.20510000
opls_146-170    H    0.29044984    0.81104984    0.43101072    0.20500000
opls_146-171    H    0.33068984    0.88404000    0.46510025    0.20500000
opls_146-172    H    0.29006997    0.70971984    0.72431034    0.20500000
opls_146-173    H    0.33322009    0.63799999    0.70285039    0.20500000
opls_146-174    H    0.37042987    0.65060001    0.36258956    0.20500000
opls_146-175    H    0.32386999    0.72064003    0.38467035    0.20500000
opls_146-176    H    0.36612002    0.57170990    0.33691064    0.20500000
opls_146-177    H    0.40707996    0.49893991    0.30822905    0.20510000
opls_146-178    H    0.44549987    0.53072992    0.66509049    0.20500000
opls_146-179    H    0.40676992    0.60455005    0.69584936    0.20500000
opls_146-180    H    0.42483014    0.92609001    0.91080026    0.20500000
opls_146-181    H    0.45684010    0.00315009    0.93382011    0.20470000
opls_146-182    H    0.35706984    0.03540001    0.42473985    0.20480000
opls_146-183    H    0.32321011    0.95970012    0.39500010    0.20450000
opls_144-184    H    0.46376993    0.45403990    0.80090978    0.09620000
opls_144-185    H    0.41365017    0.09374989    0.32527088    0.09620000
opls_146-186    H    0.46273017    0.37677988    0.78394018    0.20500000
opls_146-187    H    0.50226002    0.30257014    0.77996915    0.20500000
opls_146-188    H    0.54323986    0.32134996    0.43036059    0.20500000
opls_146-189    H    0.50405986    0.39593009    0.43414029    0.20510000
opls_146-190    H    0.54775011    0.20195007    0.76595927    0.20500000
opls_146-191    H    0.50810994    0.12762990    0.76292927    0.20500000
opls_146-192    H    0.45955994    0.15146015    0.40054079    0.20500000
opls_146-193    H    0.49817013    0.22563010    0.40062084    0.20500000
opls_140-194    H    0.57748015    0.26011990    0.23610043    0.16440000
opls_140-195    H    0.57853003    0.26534010    0.95674040    0.16450000
opls_146-196    H    0.63581005    0.11939989    0.79948068    0.20500000
opls_146-197    H    0.67691000    0.19253993    0.76854025    0.20500000
opls_146-198    H    0.70955016    0.18895016    0.43101072    0.20500000
opls_146-199    H    0.66931016    0.11596000    0.46510025    0.20500000
opls_146-200    H    0.70993003    0.29028016    0.72431034    0.20500000
opls_146-201    H    0.66677991    0.36200001    0.70285039    0.20500000
opls_146-202    H    0.62957013    0.34939999    0.36258956    0.20500000
opls_146-203    H    0.67613001    0.27935997    0.38467035    0.20500000
opls_146-204    H    0.63387998    0.42829010    0.33691064    0.20500000
opls_146-205    H    0.59292004    0.50106009    0.30822905    0.20500000
opls_146-206    H    0.55450013    0.46927008    0.66509049    0.20510000
opls_146-207    H    0.59323008    0.39544995    0.69584936    0.20500000
opls_146-208    H    0.57516986    0.07390999    0.91080026    0.20500000
opls_146-209    H    0.54315990    0.99684991    0.93382011    0.20470000
opls_146-210    H    0.64293016    0.96459999    0.42473985    0.20480000
opls_146-211    H    0.67678989    0.04029988    0.39500010    0.20450000
opls_144-212    H    0.53623007    0.54596010    0.80090978    0.09620000
opls_144-213    H    0.58634983    0.90625011    0.32527088    0.09620000
opls_146-214    H    0.53726983    0.62322012    0.78394018    0.20500000
opls_146-215    H    0.49773998    0.69742986    0.77996915    0.20500000
opls_146-216    H    0.45676014    0.67865004    0.43036059    0.20500000
opls_146-217    H    0.49594014    0.60406991    0.43414029    0.20500000
opls_146-218    H    0.45224989    0.79804993    0.76595927    0.20500000
opls_146-219    H    0.49189006    0.87237010    0.76292927    0.20500000
opls_146-220    H    0.54044006    0.84853985    0.40054079    0.20500000
opls_146-221    H    0.50182987    0.77436990    0.40062084    0.20500000
opls_140-222    H    0.42251985    0.73988010    0.23610043    0.16450000
opls_140-223    H    0.42146997    0.73465990    0.95674040    0.16450000
opls_146-224    H    0.86418995    0.11939989    0.79948068    0.20500000
opls_146-225    H    0.82309000    0.19253993    0.76854025    0.20500000
opls_146-226    H    0.79044984    0.18895016    0.43101072    0.20510000
opls_146-227    H    0.83068984    0.11596000    0.46510025    0.20500000
opls_146-228    H    0.79006997    0.29028016    0.72431034    0.20500000
opls_146-229    H    0.83322009    0.36200001    0.70285039    0.20500000
opls_146-230    H    0.87042987    0.34939999    0.36258956    0.20500000
opls_146-231    H    0.82386999    0.27935997    0.38467035    0.20500000
opls_146-232    H    0.86612002    0.42829010    0.33691064    0.20500000
opls_146-233    H    0.90707996    0.50106009    0.30822905    0.20500000
opls_146-234    H    0.94549987    0.46927008    0.66509049    0.20500000
opls_146-235    H    0.90676992    0.39544995    0.69584936    0.20500000
opls_146-236    H    0.92483014    0.07390999    0.91080026    0.20510000
opls_146-237    H    0.95684010    0.99684991    0.93382011    0.20470000
opls_146-238    H    0.85706984    0.96459999    0.42473985    0.20480000
opls_146-239    H    0.82321011    0.04029988    0.39500010    0.20450000
opls_144-240    H    0.96376993    0.54596010    0.80090978    0.09620000
opls_144-241    H    0.91365017    0.90625011    0.32527088    0.09620000
opls_146-242    H    0.96273017    0.62322012    0.78394018    0.20500000
opls_146-243    H    0.00226002    0.69742986    0.77996915    0.20500000
opls_146-244    H    0.04323986    0.67865004    0.43036059    0.20500000
opls_146-245    H    0.00405986    0.60406991    0.43414029    0.20500000
opls_146-246    H    0.04775011    0.79804993    0.76595927    0.20510000
opls_146-247    H    0.00810994    0.87237010    0.76292927    0.20500000
opls_146-248    H    0.95955994    0.84853985    0.40054079    0.20500000
opls_146-249    H    0.99817013    0.77436990    0.40062084    0.20500000
opls_140-250    H    0.07748015    0.73988010    0.23610043    0.16440000
opls_140-251    H    0.07853003    0.73465990    0.95674040    0.16450000
opls_146-252    H    0.13581005    0.88060011    0.79948068    0.20510000
opls_146-253    H    0.17691000    0.80746007    0.76854025    0.20500000
opls_146-254    H    0.20955016    0.81104984    0.43101072    0.20500000
opls_146-255    H    0.16931016    0.88404000    0.46510025    0.20500000
opls_146-256    H    0.20993003    0.70971984    0.72431034    0.20500000
opls_146-257    H    0.16677991    0.63799999    0.70285039    0.20500000
opls_146-258    H    0.12957013    0.65060001    0.36258956    0.20500000
opls_146-259    H    0.17613001    0.72064003    0.38467035    0.20500000
opls_146-260    H    0.13387998    0.57170990    0.33691064    0.20510000
opls_146-261    H    0.09292004    0.49893991    0.30822905    0.20500000
opls_146-262    H    0.05450013    0.53072992    0.66509049    0.20500000
opls_146-263    H    0.09323008    0.60455005    0.69584936    0.20500000
opls_146-264    H    0.07516986    0.92609001    0.91080026    0.20500000
opls_146-265    H    0.04315990    0.00315009    0.93382011    0.20470000
opls_146-266    H    0.14293016    0.03540001    0.42473985    0.20480000
opls_146-267    H    0.17678989    0.95970012    0.39500010    0.20450000
opls_144-268    H    0.03623007    0.45403990    0.80090978    0.09620000
opls_144-269    H    0.08634983    0.09374989    0.32527088    0.09620000
opls_146-270    H    0.03726983    0.37677988    0.78394018    0.20510000
opls_146-271    H    0.99773998    0.30257014    0.77996915    0.20500000
opls_146-272    H    0.95676014    0.32134996    0.43036059    0.20500000
opls_146-273    H    0.99594014    0.39593009    0.43414029    0.20500000
opls_146-274    H    0.95224989    0.20195007    0.76595927    0.20500000
opls_146-275    H    0.99189006    0.12762990    0.76292927    0.20500000
opls_146-276    H    0.04044006    0.15146015    0.40054079    0.20500000
opls_146-277    H    0.00182987    0.22563010    0.40062084    0.20500000
opls_140-278    H    0.92251985    0.26011990    0.23610043    0.16440000
opls_140-279    H    0.92146997    0.26534010    0.95674040    0.16450000
