#======================================================================
# Crystal Data Generated By AuToFF
#----------------------------------------------------------------------

data_AuToFF_phase_1

_cell_length_a                         34.2700
_cell_length_b                         32.9100
_cell_length_c                         9.7000
_cell_angle_alpha                      88.54
_cell_angle_beta                       84.80
_cell_angle_gamma                      61.95
_symmetry_space_group_name_H-M_alt     'P 1'
_symmetry_space_group_IT_number        1

loop_
_space_group_symop_operation_xyz
   'x, y, z'

loop_
   _atom_site_label
   _atom_site_type_symbol
   _atom_site_fract_x
   _atom_site_fract_y
   _atom_site_fract_z
   _atom_site_charge
opls_238-0    N    0.33906991    0.32784007    0.07643007    -0.37280000
opls_238-1    N    0.05962989    0.45283997    0.82097981    -0.37050000
opls_238-2    N    0.24586012    0.46243990    0.61466996    -0.37280000
opls_238-3    N    0.24322985    0.27204002    0.54448015    -0.37290000
opls_238-4    N    0.46748995    0.66867003    0.87515013    -0.37150000
opls_238-5    N    0.45973983    0.84573998    0.61773056    -0.37290000
opls_238-6    N    0.65417996    0.65059008    0.53919969    -0.37050000
opls_238-7    N    0.74494002    0.12063006    0.26762019    -0.37290000
opls_238-8    N    0.94731989    0.09481001    0.27619007    -0.36990000
opls_238-9    N    0.92833003    0.92166005    0.20202956    -0.37300000
opls_238-10    N    0.16562995    0.30557987    0.20047027    -0.37220000
opls_238-11    N    0.14474996    0.49756993    0.15061957    -0.37310000
opls_910-12    H    0.34853007    0.33528015    0.97739029    0.24350000
opls_702-13    H    0.58858994    0.23586001    0.22900031    0.04220000
opls_702-14    H    0.58450006    0.19915010    0.01867007    0.08100000
opls_140-15    H    0.49824986    0.17900994    0.34089027    0.10010000
opls_140-16    H    0.55693979    0.14201014    0.33243013    0.10000000
opls_702-17    H    0.50676987    0.28756001    0.24015038    0.04220000
opls_702-18    H    0.50261984    0.25052018    0.03033990    0.04220000
opls_140-19    H    0.53749994    0.22264003    0.44649957    0.04540000
opls_140-20    H    0.53063004    0.15773986    0.07826995    0.04540000
opls_146-21    H    0.35255998    0.36073009    0.32000965    0.10950000
opls_702-22    H    0.44713996    0.21228996    0.94716015    0.15320000
opls_702-23    H    0.67638999    0.20829992    0.39677001    0.15530000
opls_146-24    H    0.73000000    0.08472001    0.04806052    0.10530000
opls_702-25    H    0.63880988    0.07549020    0.94395045    0.15530000
opls_702-26    H    0.63595972    0.12704019    0.86471966    0.15530000
opls_702-27    H    0.68889005    0.07658994    0.87457963    0.15530000
opls_702-28    H    0.43157999    0.31365000    0.55798054    0.15530000
opls_702-29    H    0.45216004    0.34338988    0.43702994    0.15530000
opls_702-30    H    0.39371986    0.36826994    0.49024046    0.15620000
opls_702-31    H    0.09626004    0.67970002    0.13609001    0.04220000
opls_702-32    H    0.03696986    0.65872003    0.13911955    0.08100000
opls_140-33    H    0.01292980    0.73718010    0.52012996    0.10000000
opls_140-34    H    0.05419004    0.67776000    0.51096991    0.10000000
opls_702-35    H    0.03776993    0.76100000    0.14315962    0.04220000
opls_702-36    H    0.97807994    0.74012990    0.15776995    0.04220000
opls_140-37    H    0.08578005    0.72895014    0.37519983    0.04540000
opls_140-38    H    0.98400989    0.68769008    0.38985053    0.04540000
opls_146-39    H    0.87277999    0.88949998    0.26882020    0.10730000
opls_702-40    H    0.87905996    0.78729997    0.41082019    0.15520000
opls_702-41    H    0.38760972    0.23761018    0.96955035    0.15530000
opls_146-42    H    0.20022982    0.53176017    0.18853021    0.10780000
opls_702-43    H    0.03077002    0.56466999    0.32416983    0.15520000
opls_702-44    H    0.02796000    0.59025015    0.15620962    0.15590000
opls_702-45    H    0.06154000    0.52984011    0.17309986    0.15680000
opls_702-46    H    0.05579987    0.82222022    0.24369036    0.15570000
opls_702-47    H    0.02187004    0.86799018    0.13592021    0.15560000
opls_702-48    H    0.02438999    0.87859001    0.31727002    0.15670000
opls_702-49    H    0.05638998    0.14923012    0.20726033    0.04220000
opls_702-50    H    0.99868988    0.22921008    0.20064008    0.04220000
opls_140-51    H    0.06764005    0.21844987    0.56693973    0.10000000
opls_140-52    H    0.02529982    0.20089003    0.57413980    0.10000000
opls_702-53    H    0.11615002    0.17193993    0.20200989    0.08110000
opls_702-54    H    0.05899004    0.25166998    0.18648015    0.04140000
opls_140-55    H    0.09972000    0.13565999    0.44748008    0.04560000
opls_140-56    H    0.00121988    0.27708993    0.42723001    0.04560000
opls_146-57    H    0.22160989    0.21570009    0.26785004    0.10670000
opls_702-58    H    0.07535002    0.36008997    0.32207007    0.15530000
opls_702-59    H    0.06003995    0.07023015    0.24165997    0.15520000
opls_146-60    H    0.88758985    0.18850009    0.32100983    0.10960000
opls_702-61    H    0.89549999    0.28271992    0.43970019    0.15530000
opls_702-62    H    0.91138000    0.27903011    0.25572982    0.15520000
opls_702-63    H    0.86661991    0.26767010    0.32100051    0.15570000
opls_702-64    H    0.20477003    0.12818992    0.43499023    0.15570000
opls_702-65    H    0.19983999    0.12483012    0.25247975    0.15520000
opls_702-66    H    0.24148993    0.13775999    0.30959057    0.15530000
opls_702-67    H    0.20195993    0.14743993    0.85642001    0.15520000
opls_146-68    H    0.51816974    0.87835024    0.61424028    0.10990000
opls_702-69    H    0.34763993    0.92502993    0.79826966    0.15530000
opls_702-70    H    0.34534992    0.93609999    0.61515038    0.15590000
opls_702-71    H    0.37747985    0.87869003    0.67411040    0.15640000
opls_702-72    H    0.37319990    0.17338015    0.55033008    0.15570000
opls_702-73    H    0.33450002    0.21590019    0.44392974    0.15590000
opls_702-74    H    0.34426000    0.23159001    0.61103058    0.15670000
opls_702-75    H    0.36845998    0.50490989    0.62019995    0.08100000
opls_702-76    H    0.31930987    0.58457018    0.55988979    0.08100000
opls_140-77    H    0.34613994    0.58883000    0.98907047    0.07700000
opls_140-78    H    0.30503996    0.57299008    0.95042989    0.10000000
opls_702-79    H    0.42716989    0.52679012    0.67671025    0.08590000
opls_702-80    H    0.37797984    0.60653008    0.61328979    0.08100000
opls_140-81    H    0.38526990    0.50209006    0.89670064    0.04490000
opls_140-82    H    0.30004008    0.64160993    0.78968011    0.04560000
opls_146-83    H    0.51195989    0.57933006    0.93456054    0.10700000
opls_702-84    H    0.37070978    0.72009001    0.82311995    0.15520000
opls_702-85    H    0.36289983    0.43135023    0.66893036    0.15590000
opls_146-86    H    0.19842996    0.55326013    0.56875994    0.10700000
opls_702-87    H    0.20290994    0.65216992    0.68446011    0.15530000
opls_702-88    H    0.23362990    0.63582021    0.51599981    0.15520000
opls_702-89    H    0.18277982    0.63202020    0.55066969    0.15530000
opls_702-90    H    0.48502989    0.48946017    0.98547044    0.15520000
opls_702-91    H    0.50238971    0.48549018    0.80247022    0.15530000
opls_702-92    H    0.53139983    0.49894011    0.92479065    0.15530000
opls_144-93    H    0.08989997    0.37950010    0.77376002    0.09320000
opls_144-94    H    0.28609998    0.30019995    0.59546978    0.09700000
opls_144-95    H    0.17640979    0.50373002    0.69277011    0.08970000
opls_910-96    H    0.05278973    0.44843021    0.92593060    0.24350000
opls_910-97    H    0.24346006    0.46445008    0.50783994    0.24350000
opls_910-98    H    0.25892976    0.26434016    0.44433044    0.24360000
opls_144-99    H    0.52547008    0.62331992    0.73685992    0.09180000
opls_144-100    H    0.62926991    0.72459003    0.52804031    0.09320000
opls_144-101    H    0.43910986    0.82115007    0.80368991    0.09730000
opls_910-102    H    0.44305996    0.70099011    0.84858007    0.24360000
opls_910-103    H    0.48416993    0.83344994    0.53468023    0.24330000
opls_702-104    H    0.33689988    0.43095999    0.83897998    0.15530000
opls_702-105    H    0.32171999    0.41221002    0.68961012    0.09530000
opls_702-106    H    0.40241000    0.69748998    0.65743966    0.15530000
opls_702-107    H    0.35291978    0.69245006    0.70504978    0.15570000
opls_702-108    H    0.71568994    0.56206022    0.43039001    0.15530000
opls_702-109    H    0.99032976    0.51856002    0.01034039    0.15590000
opls_702-110    H    0.77379991    0.54580013    0.40394006    0.15320000
opls_702-111    H    0.94515990    0.56597995    0.93564977    0.15570000
opls_702-112    H    0.16871973    0.18435015    0.72601012    0.15570000
opls_702-113    H    0.21021981    0.12621017    0.68086007    0.15590000
opls_702-114    H    0.52207992    0.95475999    0.50429996    0.15520000
opls_702-115    H    0.49626996    0.00240019    0.62706042    0.15320000
opls_702-116    H    0.53767985    0.94705999    0.68010010    0.15530000
opls_144-117    H    0.76486997    0.04769985    0.30118013    0.09320000
opls_144-118    H    0.96636990    0.94706997    0.30630011    0.08730000
opls_144-119    H    0.88429995    0.13790016    0.19043014    0.09760000
opls_910-120    H    0.74282996    0.13609019    0.36246977    0.24360000
opls_910-121    H    0.96544990    0.08386003    0.17961036    0.24300000
opls_910-122    H    0.94801996    0.91635016    0.10869993    0.24350000
opls_144-123    H    0.23768008    0.26801006    0.17663984    0.09730000
opls_144-124    H    0.30644984    0.40168006    0.11609051    0.09220000
opls_144-125    H    0.11318989    0.46502016    0.27925999    0.09740000
opls_910-126    H    0.16474003    0.30012989    0.09531033    0.24350000
opls_910-127    H    0.17436988    0.48593998    0.08668971    0.24350000
opls_702-128    H    0.05616997    0.06356988    0.42695046    0.15570000
opls_702-129    H    0.02637011    0.04592987    0.32167973    0.15580000
opls_702-130    H    0.07883995    0.33741008    0.15065995    0.15530000
opls_702-131    H    0.04008005    0.33557005    0.28504986    0.15530000
opls_702-132    H    0.41395994    0.26880005    0.88148048    0.15530000
opls_702-133    H    0.84935984    0.83191013    0.29165976    0.15530000
opls_702-134    H    0.89249006    0.77679013    0.22625033    0.15530000
opls_702-135    H    0.62690991    0.20868015    0.47778995    0.15320000
opls_702-136    H    0.67999997    0.16375019    0.51754978    0.15530000
opls_702-137    H    0.20219015    0.61300993    0.13536007    0.15520000
opls_702-138    H    0.17563006    0.65232010    0.28137010    0.15320000
opls_702-139    H    0.21771003    0.59415998    0.30780039    0.15530000
opls_910-140    H    0.66151998    0.64712012    0.43190995    0.24350000
opls_702-141    H    0.90717986    0.58394012    0.68718007    0.08110000
opls_702-142    H    0.90744992    0.53955022    0.48614033    0.08100000
opls_140-143    H    0.81588993    0.52858017    0.81032051    0.10000000
opls_140-144    H    0.87422990    0.49303006    0.81569002    0.10000000
opls_702-145    H    0.82357982    0.63480004    0.67657047    0.08100000
opls_702-146    H    0.82448995    0.58929009    0.47786036    0.08100000
opls_140-147    H    0.85135993    0.57777005    0.90366982    0.04540000
opls_140-148    H    0.85358974    0.49853016    0.55605058    0.04560000
opls_146-149    H    0.66413994    0.69506998    0.76122979    0.10680000
opls_702-150    H    0.73416016    0.59844993    0.33183996    0.15530000
opls_702-151    H    0.00149000    0.55101996    0.87316012    0.15530000
opls_146-152    H    0.04907986    0.41552998    0.58039974    0.10680000
opls_702-153    H    0.99368994    0.39562012    0.44760018    0.15580000
opls_702-154    H    0.94475979    0.44656020    0.40561013    0.15570000
opls_702-155    H    0.99885987    0.44153000    0.35418047    0.15530000
opls_702-156    H    0.74657995    0.66757994    0.98391011    0.15530000
opls_702-157    H    0.76022978    0.69833003    0.84704045    0.15540000
opls_702-158    H    0.70308989    0.71716013    0.90928989    0.15530000
opls_702-159    H    0.41219977    0.02580011    0.51157975    0.08100000
opls_702-160    H    0.35179986    0.00661006    0.56120059    0.08100000
opls_140-161    H    0.34015968    0.09811019    0.89708995    0.10010000
opls_140-162    H    0.38095999    0.03870009    0.89929014    0.10000000
opls_702-163    H    0.35310005    0.10791008    0.50370979    0.04220000
opls_702-164    H    0.29320002    0.08872007    0.56666018    0.04220000
opls_140-165    H    0.40879004    0.08381995    0.71862990    0.04560000
opls_140-166    H    0.30656990    0.04497996    0.81810040    0.04540000
opls_146-167    H    0.19073995    0.24122013    0.65975996    0.10970000
opls_515-168    C    0.58195002    0.20606004    0.24758030    -0.06070000
opls_137-169    C    0.53788002    0.21646019    0.33428968    -0.00320000
opls_137-170    C    0.53436992    0.18276988    0.14324038    -0.00320000
opls_515-171    C    0.57957991    0.18306998    0.11652019    -0.05970000
opls_136-172    C    0.53089982    0.17570019    0.29864033    -0.20480000
opls_515-173    C    0.50156996    0.25687019    0.25913003    -0.05960000
opls_515-174    C    0.49912002    0.23373999    0.12843955    -0.05970000
opls_700-175    C    0.45416999    0.26822012    0.29867968    0.03490000
opls_700-176    C    0.41925009    0.31026996    0.34686962    0.09550000
opls_145-177    C    0.38006001    0.32888006    0.27901978    -0.23030000
opls_916-178    C    0.37769014    0.30809992    0.15473005    0.19560000
opls_700-179    C    0.41496991    0.26690002    0.10312024    0.05030000
opls_700-180    C    0.45197011    0.24688988    0.17912995    0.03490000
opls_700-181    C    0.66241000    0.15673008    0.31534006    0.05000000
opls_700-182    C    0.62229978    0.16193019    0.27470015    0.03460000
opls_700-183    C    0.62036990    0.14090011    0.15397008    0.03460000
opls_700-184    C    0.65871003    0.11424004    0.06827952    0.09540000
opls_145-185    C    0.69981000    0.10551010    0.11299988    -0.22990000
opls_916-186    C    0.70235004    0.12607004    0.23640953    0.18950000
opls_148-187    C    0.65553978    0.09734021    0.92976981    -0.48340000
opls_148-188    C    0.42437995    0.33544014    0.46481968    -0.48200000
opls_515-189    C    0.08294985    0.67563019    0.24164030    -0.05920000
opls_137-190    C    0.06179000    0.71915014    0.33648056    -0.00070000
opls_137-191    C    0.00883982    0.69802011    0.34414034    -0.00280000
opls_515-192    C    0.04643010    0.66168996    0.24374006    -0.06370000
opls_136-193    C    0.03423995    0.70790009    0.44758051    -0.19950000
opls_515-194    C    0.02615001    0.75654988    0.25069992    -0.05970000
opls_515-195    C    0.98936998    0.74280001    0.25964047    -0.05970000
opls_700-196    C    0.99371994    0.80081996    0.32375982    0.03780000
opls_700-197    C    0.98503993    0.84515005    0.28234026    0.04840000
opls_916-198    C    0.94006982    0.87825010    0.26751976    0.16760000
opls_145-199    C    0.90639004    0.86493007    0.28826991    -0.25560000
opls_700-200    C    0.91652014    0.81898990    0.31485964    0.09580000
opls_700-201    C    0.96020984    0.78767006    0.33597011    0.03430000
opls_700-202    C    0.15525995    0.59972019    0.26365052    0.10510000
opls_700-203    C    0.11104998    0.63004998    0.30467042    0.03500000
opls_700-204    C    0.07790006    0.61656011    0.30257997    0.03900000
opls_700-205    C    0.08792989    0.57273006    0.25346026    0.05210000
opls_916-206    C    0.13324001    0.54040991    0.21972016    0.16800000
opls_145-207    C    0.16628000    0.55450010    0.22630003    -0.25530000
opls_148-208    C    0.41600001    0.24516004    0.96742988    -0.47980000
opls_148-209    C    0.05021010    0.56358002    0.22508035    -0.48160000
opls_148-210    C    0.02367996    0.85424993    0.24205031    -0.48070000
opls_515-211    C    0.04307001    0.16633008    0.31090965    -0.05970000
opls_137-212    C    0.07735994    0.16870015    0.40038972    -0.00320000
opls_137-213    C    0.02610001    0.24195992    0.38993026    -0.00300000
opls_515-214    C    0.00746998    0.21639008    0.30660037    -0.05970000
opls_136-215    C    0.04851005    0.20798987    0.50247975    -0.20250000
opls_515-216    C    0.10132011    0.18981002    0.30394979    -0.06000000
opls_515-217    C    0.06602994    0.23973020    0.29422027    -0.05970000
opls_700-218    C    0.12897000    0.20732017    0.36817992    0.03480000
opls_700-219    C    0.17393999    0.19339005    0.33553008    0.09550000
opls_145-220    C    0.18676986    0.22703002    0.29524013    -0.23000000
opls_916-221    C    0.15455000    0.27356007    0.27635988    0.19000000
opls_700-222    C    0.10895002    0.28626019    0.30426040    0.04990000
opls_700-223    C    0.09695010    0.25327000    0.35587022    0.03770000
opls_700-224    C    0.99929001    0.12033992    0.35038993    0.05100000
opls_700-225    C    0.00838982    0.15589020    0.38353054    0.03460000
opls_700-226    C    0.97593980    0.20194019    0.38262975    0.03500000
opls_700-227    C    0.93268004    0.21397994    0.35575012    0.09550000
opls_145-228    C    0.92169989    0.17847018    0.33650023    -0.23030000
opls_916-229    C    0.95512998    0.13135990    0.32596001    0.19580000
opls_148-230    C    0.89954982    0.26367015    0.34215033    -0.48240000
opls_148-231    C    0.20701994    0.14319988    0.33282979    -0.48430000
opls_280-232    C    0.90955011    0.03412985    0.34745979    0.30530000
opls_145-233    C    0.88383986    0.08015992    0.28653047    -0.12390000
opls_280-234    C    0.83865995    0.09255016    0.24691041    0.24830000
opls_700-235    C    0.47473003    0.95038004    0.65594042    0.09540000
opls_700-236    C    0.43117983    0.98300021    0.69691994    0.03780000
opls_700-237    C    0.39748977    0.97041014    0.72102060    0.03600000
opls_700-238    C    0.40586976    0.92511025    0.69658033    0.05460000
opls_916-239    C    0.45049989    0.89085991    0.66363023    0.16740000
opls_145-240    C    0.48457996    0.90388022    0.64710030    -0.25450000
opls_148-241    C    0.36711991    0.91543014    0.69571992    -0.48060000
opls_148-242    C    0.34078998    0.20519006    0.55248989    -0.48060000
opls_515-243    C    0.34651000    0.52709990    0.70896975    -0.06180000
opls_137-244    C    0.37029000    0.53275008    0.83060992    -0.00140000
opls_137-245    C    0.32600003    0.60516007    0.77497039    -0.00110000
opls_515-246    C    0.31604000    0.57678998    0.67141011    -0.06480000
opls_136-247    C    0.33436987    0.57627009    0.90480978    -0.20570000
opls_515-248    C    0.40350996    0.54880994    0.76297027    -0.05210000
opls_515-249    C    0.37300007    0.59849998    0.72359974    -0.05210000
opls_700-250    C    0.42312981    0.56834019    0.85784056    0.03770000
opls_700-251    C    0.46662987    0.55423007    0.88698976    0.09510000
opls_145-252    C    0.47952981    0.58868015    0.90120974    -0.23040000
opls_916-253    C    0.45223984    0.63477991    0.86164042    0.19590000
opls_700-254    C    0.41047005    0.64635993    0.81064977    0.05210000
opls_700-255    C    0.39569985    0.61329007    0.82147058    0.03430000
opls_700-256    C    0.29651995    0.48640017    0.71101049    0.04870000
opls_700-257    C    0.30536985    0.52208022    0.74557994    0.03800000
opls_700-258    C    0.27760001    0.56760994    0.71224053    0.03500000
opls_700-259    C    0.23967995    0.57943002    0.64432961    0.09550000
opls_145-260    C    0.22783986    0.54476007    0.62115976    -0.23090000
opls_916-261    C    0.25571990    0.49822004    0.65500961    0.19010000
opls_148-262    C    0.21316993    0.62759006    0.59567996    -0.48430000
opls_148-263    C    0.49828998    0.50415006    0.90090016    -0.48430000
opls_280-264    C    0.23072982    0.38436008    0.68482042    0.13930000
opls_145-265    C    0.19519981    0.43302006    0.70279057    -0.11100000
opls_280-266    C    0.14878002    0.44177005    0.74073020    0.26040000
opls_145-267    C    0.13693982    0.40369990    0.73085055    -0.13400000
opls_280-268    C    0.17168996    0.35804989    0.67271056    0.19190000
opls_145-269    C    0.21938976    0.34722014    0.65395973    -0.20390000
opls_142-270    C    0.09594973    0.40914011    0.77345976    0.04320000
opls_142-271    C    0.25225000    0.30561016    0.60654011    0.03940000
opls_142-272    C    0.20380983    0.46894997    0.68007007    0.04000000
opls_280-273    C    0.54673987    0.75917004    0.64722040    0.28050000
opls_145-274    C    0.50396988    0.77233024    0.73272977    -0.15730000
opls_280-275    C    0.50070969    0.73563020    0.81693041    0.31450000
opls_145-276    C    0.52386996    0.68756014    0.76039009    -0.20390000
opls_280-277    C    0.56514997    0.67411002    0.66612033    0.14780000
opls_145-278    C    0.57935977    0.70946005    0.62173025    -0.13460000
opls_142-279    C    0.50720992    0.65756003    0.78436962    0.04110000
opls_142-280    C    0.62057992    0.69779011    0.56102975    0.04320000
opls_142-281    C    0.46767985    0.81439995    0.73122018    0.05270000
opls_148-282    C    0.33126975    0.43741015    0.72783033    -0.48340000
opls_148-283    C    0.38257987    0.69169009    0.74527036    -0.47980000
opls_148-284    C    0.74002002    0.57554010    0.42212970    -0.47980000
opls_148-285    C    0.20233972    0.15683016    0.74576010    -0.48430000
opls_148-286    C    0.97901987    0.53683018    0.91247991    -0.48170000
opls_148-287    C    0.50965996    0.96459020    0.61439973    -0.48200000
opls_700-288    C    0.97931007    0.50419995    0.80625041    0.04880000
opls_700-289    C    0.97898001    0.45453991    0.57141053    0.10490000
opls_145-290    C    0.01871995    0.44198998    0.63238023    -0.23170000
opls_916-291    C    0.01932998    0.46537996    0.75402040    0.16180000
opls_515-292    C    0.40168998    0.02612018    0.62372026    -0.06480000
opls_515-293    C    0.36460004    0.01319989    0.65498062    -0.06470000
opls_145-294    C    0.82070982    0.05916008    0.26946007    -0.15870000
opls_280-295    C    0.85295007    0.00976998    0.28574978    0.24860000
opls_145-296    C    0.89952990    0.99667011    0.31198956    -0.12680000
opls_142-297    C    0.77665995    0.07282017    0.27772969    0.03920000
opls_142-298    C    0.93324012    0.95376994    0.28700985    0.04410000
opls_142-299    C    0.90208006    0.10800995    0.25300987    0.04440000
opls_280-300    C    0.22765988    0.41816007    0.23594982    0.31240000
opls_145-301    C    0.18224981    0.42301013    0.26396010    -0.11980000
opls_280-302    C    0.17820988    0.38073011    0.29706033    0.31050000
opls_145-303    C    0.21569991    0.33503995    0.25253048    -0.11490000
opls_280-304    C    0.26080010    0.33072002    0.22663032    0.27900000
opls_145-305    C    0.26600999    0.37260000    0.19793979    -0.12960000
opls_142-306    C    0.20921995    0.29944008    0.21753032    0.04380000
opls_142-307    C    0.30360992    0.37036007    0.13378007    0.04440000
opls_142-308    C    0.14516002    0.46312992    0.24661015    0.04010000
opls_148-309    C    0.03739998    0.07226000    0.33367984    -0.48210000
opls_148-310    C    0.07372001    0.33251000    0.26324983    -0.48000000
opls_148-311    C    0.88230006    0.80294015    0.31054002    -0.48450000
opls_148-312    C    0.66143988    0.18603991    0.43351998    -0.48010000
opls_148-313    C    0.18960996    0.61588988    0.24612041    -0.48270000
opls_515-314    C    0.90012991    0.55478018    0.71340016    -0.05120000
opls_137-315    C    0.85434997    0.56742007    0.79358972    -0.00350000
opls_137-316    C    0.85531983    0.52640007    0.61302059    -0.00060000
opls_515-317    C    0.90037001    0.52715015    0.58841984    -0.06480000
opls_136-318    C    0.84886994    0.52485995    0.77029045    -0.20450000
opls_515-319    C    0.81911003    0.60416008    0.70466979    -0.05160000
opls_515-320    C    0.81978982    0.57580005    0.58095057    -0.06250000
opls_700-321    C    0.77164984    0.61452013    0.73890999    0.03700000
opls_700-322    C    0.73392985    0.65517022    0.78097045    0.09550000
opls_145-323    C    0.69440999    0.66560998    0.72069963    -0.22640000
opls_916-324    C    0.69455981    0.63983003    0.60380980    0.16150000
opls_700-325    C    0.73546992    0.60177014    0.55241017    0.04880000
opls_700-326    C    0.77234989    0.58855023    0.62744972    0.03410000
opls_700-327    C    0.93971001    0.51167009    0.75463024    0.03460000
opls_700-328    C    0.93966001    0.48691007    0.64110024    0.03140000
opls_148-329    C    0.97900982    0.43345015    0.43649050    -0.48330000
opls_148-330    C    0.73592977    0.68647025    0.88643065    -0.48420000
opls_137-331    C    0.38338000    0.07303997    0.70118055    -0.00130000
opls_137-332    C    0.33016988    0.05319011    0.75279968    -0.00060000
opls_136-333    C    0.35908996    0.06634999    0.83173021    -0.19910000
opls_515-334    C    0.34485990    0.10752011    0.61726981    -0.06180000
opls_515-335    C    0.30807982    0.09464009    0.65649021    -0.05970000
opls_700-336    C    0.31453982    0.15429999    0.68122971    0.03920000
opls_700-337    C    0.30391980    0.19722004    0.62206054    0.04720000
opls_916-338    C    0.25807000    0.23003007    0.62059961    0.18970000
opls_145-339    C    0.22531005    0.21727991    0.66917057    -0.23780000
opls_700-340    C    0.23678991    0.17239020    0.71349024    0.09580000
opls_700-341    C    0.28150980    0.14181006    0.72219990    0.03540000
opls_281-342    O    0.16069989    0.32944016    0.64064985    -0.37960000
opls_281-343    O    0.26935983    0.37486008    0.69559050    -0.40730000
opls_281-344    O    0.12045980    0.48037006    0.77959028    -0.41060000
opls_281-345    O    0.58705994    0.63421007    0.62446988    -0.40990000
opls_281-346    O    0.55646001    0.78891000    0.60564037    -0.38240000
opls_281-347    O    0.47888979    0.74499008    0.92931010    -0.37590000
opls_281-348    O    0.84093986    0.98029021    0.28055008    -0.37590000
opls_281-349    O    0.93953986    0.02660997    0.41996989    -0.40740000
opls_281-350    O    0.81662994    0.12979014    0.19456961    -0.40460000
opls_281-351    O    0.29338987    0.29279007    0.22812024    -0.40460000
opls_281-352    O    0.23379998    0.45143989    0.24943054    -0.42500000
opls_281-353    O    0.14395006    0.38353995    0.35629991    -0.40740000
