#======================================================================
# Crystal Data Generated By AuToFF
#----------------------------------------------------------------------

data_AuToFF_phase_1

_cell_length_a                         59.4700
_cell_length_b                         32.0900
_cell_length_c                         4.2600
_cell_angle_alpha                      90.00
_cell_angle_beta                       90.00
_cell_angle_gamma                      90.00
_symmetry_space_group_name_H-M_alt     'P 1'
_symmetry_space_group_IT_number        1

loop_
_space_group_symop_operation_xyz
   'x, y, z'

loop_
   _atom_site_label
   _atom_site_type_symbol
   _atom_site_fract_x
   _atom_site_fract_y
   _atom_site_fract_z
   _atom_site_charge
opls_633-0    S    0.02717000    0.54754004    0.98511972    0.09530000
opls_202-1    S    0.28266000    0.65352010    0.03087089    0.52250000
opls_633-2    S    0.97283000    0.54754004    0.01488028    0.09530000
opls_202-3    S    0.28266000    0.34647990    0.96912911    0.52250000
opls_633-4    S    0.97283000    0.45245996    0.98511972    0.09530000
opls_202-5    S    0.71734000    0.34647990    0.03087089    0.52250000
opls_633-6    S    0.02717000    0.45245996    0.01488028    0.09530000
opls_202-7    S    0.71734000    0.65352010    0.96912911    0.52250000
opls_633-8    S    0.47283000    0.04754004    0.01488028    0.09530000
opls_202-9    S    0.21734000    0.15352010    0.96912911    0.52250000
opls_633-10    S    0.52717000    0.04754004    0.98511972    0.09530000
opls_202-11    S    0.21734000    0.84647990    0.03087089    0.52250000
opls_633-12    S    0.52717000    0.95245996    0.01488028    0.09530000
opls_202-13    S    0.78266000    0.84647990    0.96912911    0.52250000
opls_633-14    S    0.47283000    0.95245996    0.98511972    0.09530000
opls_202-15    S    0.78266000    0.15352010    0.03087089    0.52250000
opls_700-16    C    0.07419993    0.54878997    0.95280986    0.09570000
opls_145-17    C    0.09378006    0.54323995    0.13138028    -0.07580000
opls_145-18    C    0.11208004    0.57020006    0.10087089    -0.07580000
opls_700-19    C    0.11085993    0.60470988    0.89929108    0.06710000
opls_145-20    C    0.09108004    0.61144001    0.72819014    -0.09460000
opls_145-21    C    0.07306003    0.58367996    0.75284977    -0.07810000
opls_716-22    C    0.05412006    0.52108009    0.98430986    -0.04860000
opls_145-23    C    0.16806003    0.65420006    0.02157981    0.22920000
opls_145-24    C    0.18625004    0.64204986    0.20834977    -0.11290000
opls_145-25    C    0.20602001    0.66553007    0.21474883    -0.07600000
opls_700-26    C    0.20823003    0.70143004    0.02802113    0.08290000
opls_145-27    C    0.18997999    0.71346993    0.83862911    -0.07590000
opls_145-28    C    0.17000992    0.69051013    0.83785915    -0.13640000
opls_700-29    C    0.22951993    0.72619009    0.03008920    -0.06930000
opls_716-30    C    0.25083000    0.70675008    0.02846009    0.12250000
opls_716-31    C    0.27065008    0.72978997    0.03257981    0.12250000
opls_142-32    C    0.12989995    0.63386008    0.86473005    0.01630000
opls_700-33    C    0.72951993    0.22619009    0.03008920    -0.06930000
opls_716-34    C    0.01131999    0.50000000    0.00000000    -0.10520000
opls_700-35    C    0.92580007    0.54878997    0.04719014    0.09570000
opls_145-36    C    0.90621994    0.54323995    0.86861972    -0.07580000
opls_145-37    C    0.88791996    0.57020006    0.89912911    -0.07580000
opls_700-38    C    0.88914007    0.60470988    0.10070892    0.06710000
opls_145-39    C    0.90891996    0.61144001    0.27180986    -0.09460000
opls_145-40    C    0.92693997    0.58367996    0.24715023    -0.07810000
opls_142-41    C    0.87010005    0.63386008    0.13526995    0.01630000
opls_716-42    C    0.94587994    0.52108009    0.01569014    -0.04860000
opls_145-43    C    0.83193997    0.65420006    0.97842019    0.22920000
opls_145-44    C    0.81374996    0.64204986    0.79165023    -0.11290000
opls_145-45    C    0.79397999    0.66553007    0.78525117    -0.07600000
opls_700-46    C    0.79176997    0.70143004    0.97197887    0.08290000
opls_145-47    C    0.81002001    0.71346993    0.16137089    -0.07590000
opls_145-48    C    0.82999008    0.69051013    0.16214085    -0.13640000
opls_716-49    C    0.74917000    0.70675008    0.97153991    0.12250000
opls_716-50    C    0.72934992    0.72978997    0.96742019    0.12250000
opls_700-51    C    0.92580007    0.45121003    0.95280986    0.09570000
opls_145-52    C    0.90621994    0.45676005    0.13138028    -0.07580000
opls_145-53    C    0.88791996    0.42979994    0.10087089    -0.07580000
opls_700-54    C    0.88914007    0.39529012    0.89929108    0.06710000
opls_145-55    C    0.90891996    0.38855999    0.72819014    -0.09460000
opls_145-56    C    0.92693997    0.41632004    0.75284977    -0.07810000
opls_716-57    C    0.94587994    0.47891991    0.98430986    -0.04860000
opls_145-58    C    0.83193997    0.34579994    0.02157981    0.22920000
opls_145-59    C    0.81374996    0.35795014    0.20834977    -0.11290000
opls_145-60    C    0.79397999    0.33446993    0.21474883    -0.07600000
opls_700-61    C    0.79176997    0.29856996    0.02802113    0.08290000
opls_145-62    C    0.81002001    0.28653007    0.83862911    -0.07590000
opls_145-63    C    0.82999008    0.30948987    0.83785915    -0.13640000
opls_700-64    C    0.77048007    0.27380991    0.03008920    -0.06930000
opls_716-65    C    0.74917000    0.29324992    0.02846009    0.12250000
opls_716-66    C    0.72934992    0.27021003    0.03257981    0.12250000
opls_142-67    C    0.87010005    0.36613992    0.86473005    0.01630000
opls_700-68    C    0.27048007    0.77380991    0.03008920    -0.06930000
opls_716-69    C    0.98868001    0.50000000    0.00000000    -0.10520000
opls_700-70    C    0.07419993    0.45121003    0.04719014    0.09570000
opls_145-71    C    0.09378006    0.45676005    0.86861972    -0.07580000
opls_145-72    C    0.11208004    0.42979994    0.89912911    -0.07580000
opls_700-73    C    0.11085993    0.39529012    0.10070892    0.06710000
opls_145-74    C    0.09108004    0.38855999    0.27180986    -0.09460000
opls_145-75    C    0.07306003    0.41632004    0.24715023    -0.07810000
opls_142-76    C    0.12989995    0.36613992    0.13526995    0.01630000
opls_716-77    C    0.05412006    0.47891991    0.01569014    -0.04860000
opls_145-78    C    0.16806003    0.34579994    0.97842019    0.22920000
opls_145-79    C    0.18625004    0.35795014    0.79165023    -0.11290000
opls_145-80    C    0.20602001    0.33446993    0.78525117    -0.07600000
opls_700-81    C    0.20823003    0.29856996    0.97197887    0.08290000
opls_145-82    C    0.18997999    0.28653007    0.16137089    -0.07590000
opls_145-83    C    0.17000992    0.30948987    0.16214085    -0.13640000
opls_716-84    C    0.25083000    0.29324992    0.97153991    0.12250000
opls_716-85    C    0.27065008    0.27021003    0.96742019    0.12250000
opls_700-86    C    0.42580007    0.04878997    0.04719014    0.09570000
opls_145-87    C    0.40621994    0.04323995    0.86861972    -0.07580000
opls_145-88    C    0.38791996    0.07020006    0.89912911    -0.07580000
opls_700-89    C    0.38914007    0.10470988    0.10070892    0.06710000
opls_145-90    C    0.40891996    0.11144001    0.27180986    -0.09460000
opls_145-91    C    0.42693997    0.08367996    0.24715023    -0.07810000
opls_716-92    C    0.44587994    0.02108009    0.01569014    -0.04860000
opls_145-93    C    0.33193997    0.15420006    0.97842019    0.22930000
opls_145-94    C    0.31374996    0.14204986    0.79165023    -0.11290000
opls_145-95    C    0.29397999    0.16553007    0.78525117    -0.07600000
opls_700-96    C    0.29176997    0.20143004    0.97197887    0.08300000
opls_145-97    C    0.31002001    0.21346993    0.16137089    -0.07590000
opls_145-98    C    0.32999008    0.19051013    0.16214085    -0.13640000
opls_700-99    C    0.27048007    0.22619009    0.96991080    -0.06930000
opls_716-100    C    0.24917000    0.20675008    0.97153991    0.12250000
opls_716-101    C    0.22934992    0.22978997    0.96742019    0.12250000
opls_142-102    C    0.37010005    0.13386008    0.13526995    0.01630000
opls_700-103    C    0.77048007    0.72619009    0.96991080    -0.06930000
opls_716-104    C    0.48868001    0.00000000    0.00000000    -0.10520000
opls_700-105    C    0.57419993    0.04878997    0.95280986    0.09570000
opls_145-106    C    0.59378006    0.04323995    0.13138028    -0.07580000
opls_145-107    C    0.61208004    0.07020006    0.10087089    -0.07580000
opls_700-108    C    0.61085993    0.10470988    0.89929108    0.06710000
opls_145-109    C    0.59108004    0.11144001    0.72819014    -0.09460000
opls_145-110    C    0.57306003    0.08367996    0.75284977    -0.07810000
opls_142-111    C    0.62989995    0.13386008    0.86473005    0.01630000
opls_716-112    C    0.55412006    0.02108009    0.98430986    -0.04860000
opls_145-113    C    0.66806003    0.15420006    0.02157981    0.22920000
opls_145-114    C    0.68625004    0.14204986    0.20834977    -0.11290000
opls_145-115    C    0.70602001    0.16553007    0.21474883    -0.07600000
opls_700-116    C    0.70823003    0.20143004    0.02802113    0.08290000
opls_145-117    C    0.68997999    0.21346993    0.83862911    -0.07590000
opls_145-118    C    0.67000992    0.19051013    0.83785915    -0.13640000
opls_716-119    C    0.75083000    0.20675008    0.02846009    0.12250000
opls_716-120    C    0.77065008    0.22978997    0.03257981    0.12250000
opls_700-121    C    0.57419993    0.95121003    0.04719014    0.09570000
opls_145-122    C    0.59378006    0.95676005    0.86861972    -0.07580000
opls_145-123    C    0.61208004    0.92979994    0.89912911    -0.07580000
opls_700-124    C    0.61085993    0.89529012    0.10070892    0.06710000
opls_145-125    C    0.59108004    0.88855999    0.27180986    -0.09460000
opls_145-126    C    0.57306003    0.91632004    0.24715023    -0.07810000
opls_716-127    C    0.55412006    0.97891991    0.01569014    -0.04860000
opls_145-128    C    0.66806003    0.84579994    0.97842019    0.22930000
opls_145-129    C    0.68625004    0.85795014    0.79165023    -0.11280000
opls_145-130    C    0.70602001    0.83446993    0.78525117    -0.07600000
opls_700-131    C    0.70823003    0.79856996    0.97197887    0.08290000
opls_145-132    C    0.68997999    0.78653007    0.16137089    -0.07590000
opls_145-133    C    0.67000992    0.80948987    0.16214085    -0.13640000
opls_700-134    C    0.72951993    0.77380991    0.96991080    -0.06930000
opls_716-135    C    0.75083000    0.79324992    0.97153991    0.12250000
opls_716-136    C    0.77065008    0.77021003    0.96742019    0.12250000
opls_142-137    C    0.62989995    0.86613992    0.13526995    0.01630000
opls_700-138    C    0.22951993    0.27380991    0.96991080    -0.06930000
opls_716-139    C    0.51131999    0.00000000    0.00000000    -0.10520000
opls_700-140    C    0.42580007    0.95121003    0.95280986    0.09570000
opls_145-141    C    0.40621994    0.95676005    0.13138028    -0.07580000
opls_145-142    C    0.38791996    0.92979994    0.10087089    -0.07580000
opls_700-143    C    0.38914007    0.89529012    0.89929108    0.06710000
opls_145-144    C    0.40891996    0.88855999    0.72819014    -0.09460000
opls_145-145    C    0.42693997    0.91632004    0.75284977    -0.07810000
opls_142-146    C    0.37010005    0.86613992    0.86473005    0.01630000
opls_716-147    C    0.44587994    0.97891991    0.98430986    -0.04860000
opls_145-148    C    0.33193997    0.84579994    0.02157981    0.22930000
opls_145-149    C    0.31374996    0.85795014    0.20834977    -0.11290000
opls_145-150    C    0.29397999    0.83446993    0.21474883    -0.07600000
opls_700-151    C    0.29176997    0.79856996    0.02802113    0.08290000
opls_145-152    C    0.31002001    0.78653007    0.83862911    -0.07590000
opls_145-153    C    0.32999008    0.80948987    0.83785915    -0.13640000
opls_716-154    C    0.24917000    0.79324992    0.02846009    0.12250000
opls_716-155    C    0.22934992    0.77021003    0.03257981    0.12250000
opls_750-156    N    0.25365008    0.66686008    0.02226995    -0.30190000
opls_750-157    N    0.28880007    0.70773013    0.03899061    -0.30180000
opls_750-158    N    0.14816008    0.62876005    0.02792958    -0.27780000
opls_750-159    N    0.85183992    0.62876005    0.97207042    -0.27780000
opls_750-160    N    0.25365008    0.33313992    0.97773005    -0.30190000
opls_750-161    N    0.28880007    0.29226987    0.96100939    -0.30190000
opls_750-162    N    0.74634992    0.33313992    0.02226995    -0.30190000
opls_750-163    N    0.71119993    0.29226987    0.03899061    -0.30180000
opls_750-164    N    0.85183992    0.37123995    0.02792958    -0.27780000
opls_750-165    N    0.14816008    0.37123995    0.97207042    -0.27780000
opls_750-166    N    0.74634992    0.66686008    0.97773005    -0.30190000
opls_750-167    N    0.71119993    0.70773013    0.96100939    -0.30190000
opls_750-168    N    0.24634992    0.16686008    0.97773005    -0.30190000
opls_750-169    N    0.21119993    0.20773013    0.96100939    -0.30190000
opls_750-170    N    0.35183992    0.12876005    0.97207042    -0.27780000
opls_750-171    N    0.64816008    0.12876005    0.02792958    -0.27780000
opls_750-172    N    0.24634992    0.83313992    0.02226995    -0.30190000
opls_750-173    N    0.21119993    0.79226987    0.03899061    -0.30190000
opls_750-174    N    0.75365008    0.83313992    0.97773005    -0.30190000
opls_750-175    N    0.78880007    0.79226987    0.96100939    -0.30190000
opls_750-176    N    0.64816008    0.87123995    0.97207042    -0.27780000
opls_750-177    N    0.35183992    0.87123995    0.02792958    -0.27780000
opls_750-178    N    0.75365008    0.16686008    0.02226995    -0.30190000
opls_750-179    N    0.78880007    0.20773013    0.03899061    -0.30190000
opls_146-180    H    0.09495998    0.51633001    0.30533099    0.04930000
opls_146-181    H    0.12812998    0.56422998    0.24015962    0.04930000
opls_146-182    H    0.08959997    0.63970988    0.56747887    0.04930000
opls_146-183    H    0.05712006    0.58910003    0.60984038    0.04930000
opls_146-184    H    0.18504994    0.61266002    0.35780047    0.04930000
opls_146-185    H    0.22055995    0.65565005    0.37242019    0.04930000
opls_146-186    H    0.19136993    0.74228015    0.68320892    0.04940000
opls_146-187    H    0.15525996    0.70130009    0.68757042    0.04930000
opls_144-188    H    0.12866000    0.66110003    0.69387089    0.02910000
opls_146-189    H    0.90504002    0.51633001    0.69466901    0.04930000
opls_146-190    H    0.87187002    0.56422998    0.75984038    0.04930000
opls_146-191    H    0.91040003    0.63970988    0.43252113    0.04930000
opls_146-192    H    0.94287994    0.58910003    0.39015962    0.04930000
opls_144-193    H    0.87134000    0.66110003    0.30612911    0.02910000
opls_146-194    H    0.81495006    0.61266002    0.64219953    0.04930000
opls_146-195    H    0.77944005    0.65565005    0.62757981    0.04930000
opls_146-196    H    0.80863007    0.74228015    0.31679108    0.04930000
opls_146-197    H    0.84474004    0.70130009    0.31242958    0.04930000
opls_146-198    H    0.90504002    0.48366999    0.30533099    0.04930000
opls_146-199    H    0.87187002    0.43577002    0.24015962    0.04930000
opls_146-200    H    0.91040003    0.36029012    0.56747887    0.04930000
opls_146-201    H    0.94287994    0.41089997    0.60984038    0.04930000
opls_146-202    H    0.81495006    0.38733998    0.35780047    0.04930000
opls_146-203    H    0.77944005    0.34434995    0.37242019    0.04930000
opls_146-204    H    0.80863007    0.25771985    0.68320892    0.04930000
opls_146-205    H    0.84474004    0.29869991    0.68757042    0.04930000
opls_144-206    H    0.87134000    0.33889997    0.69387089    0.02910000
opls_146-207    H    0.09495998    0.48366999    0.69466901    0.04930000
opls_146-208    H    0.12812998    0.43577002    0.75984038    0.04930000
opls_146-209    H    0.08959997    0.36029012    0.43252113    0.04930000
opls_146-210    H    0.05712006    0.41089997    0.39015962    0.04930000
opls_144-211    H    0.12866000    0.33889997    0.30612911    0.02910000
opls_146-212    H    0.18504994    0.38733998    0.64219953    0.04930000
opls_146-213    H    0.22055995    0.34434995    0.62757981    0.04930000
opls_146-214    H    0.19136993    0.25771985    0.31679108    0.04930000
opls_146-215    H    0.15525996    0.29869991    0.31242958    0.04930000
opls_146-216    H    0.40504002    0.01633001    0.69466901    0.04930000
opls_146-217    H    0.37187002    0.06422998    0.75984038    0.04930000
opls_146-218    H    0.41040003    0.13970988    0.43252113    0.04930000
opls_146-219    H    0.44287994    0.08910003    0.39015962    0.04930000
opls_146-220    H    0.31495006    0.11266002    0.64219953    0.04930000
opls_146-221    H    0.27944005    0.15565005    0.62757981    0.04930000
opls_146-222    H    0.30863007    0.24228015    0.31679108    0.04930000
opls_146-223    H    0.34474004    0.20130009    0.31242958    0.04930000
opls_144-224    H    0.37134000    0.16110003    0.30612911    0.02910000
opls_146-225    H    0.59495998    0.01633001    0.30533099    0.04930000
opls_146-226    H    0.62812998    0.06422998    0.24015962    0.04930000
opls_146-227    H    0.58959997    0.13970988    0.56747887    0.04930000
opls_146-228    H    0.55712006    0.08910003    0.60984038    0.04930000
opls_144-229    H    0.62866000    0.16110003    0.69387089    0.02910000
opls_146-230    H    0.68504994    0.11266002    0.35780047    0.04930000
opls_146-231    H    0.72055995    0.15565005    0.37242019    0.04930000
opls_146-232    H    0.69136993    0.24228015    0.68320892    0.04930000
opls_146-233    H    0.65525996    0.20130009    0.68757042    0.04930000
opls_146-234    H    0.59495998    0.98366999    0.69466901    0.04930000
opls_146-235    H    0.62812998    0.93577002    0.75984038    0.04930000
opls_146-236    H    0.58959997    0.86029012    0.43252113    0.04930000
opls_146-237    H    0.55712006    0.91089997    0.39015962    0.04930000
opls_146-238    H    0.68504994    0.88733998    0.64219953    0.04930000
opls_146-239    H    0.72055995    0.84434995    0.62757981    0.04930000
opls_146-240    H    0.69136993    0.75771985    0.31679108    0.04930000
opls_146-241    H    0.65525996    0.79869991    0.31242958    0.04930000
opls_144-242    H    0.62866000    0.83889997    0.30612911    0.02910000
opls_146-243    H    0.40504002    0.98366999    0.30533099    0.04930000
opls_146-244    H    0.37187002    0.93577002    0.24015962    0.04930000
opls_146-245    H    0.41040003    0.86029012    0.56747887    0.04930000
opls_146-246    H    0.44287994    0.91089997    0.60984038    0.04930000
opls_144-247    H    0.37134000    0.83889997    0.69387089    0.02910000
opls_146-248    H    0.31495006    0.88733998    0.35780047    0.04930000
opls_146-249    H    0.27944005    0.84434995    0.37242019    0.04930000
opls_146-250    H    0.30863007    0.75771985    0.68320892    0.04930000
opls_146-251    H    0.34474004    0.79869991    0.68757042    0.04930000
