#======================================================================
# Crystal Data Generated By AuToFF
#----------------------------------------------------------------------

data_AuToFF_phase_1

_cell_length_a                         43.8870
_cell_length_b                         43.8870
_cell_length_c                         8.4180
_cell_angle_alpha                      90.00
_cell_angle_beta                       90.00
_cell_angle_gamma                      120.00
_symmetry_space_group_name_H-M_alt     'P 1'
_symmetry_space_group_IT_number        1

loop_
_space_group_symop_operation_xyz
   'x, y, z'

loop_
   _atom_site_label
   _atom_site_type_symbol
   _atom_site_fract_x
   _atom_site_fract_y
   _atom_site_fract_z
   _atom_site_charge
opls_140-0    H    0.62253994    0.60617998    0.66727964    0.06410000
opls_140-1    H    0.61471991    0.64130984    0.60717035    0.06400000
opls_144-2    H    0.62285001    0.55757005    0.24997030    0.10040000
opls_146-3    H    0.59517008    0.49734998    0.12897006    0.10420000
opls_146-4    H    0.63754999    0.40219000    0.64909955    0.11080000
opls_140-5    H    0.56623996    0.49228989    0.81047042    0.15860000
opls_140-6    H    0.57584003    0.45639991    0.82243051    0.10180000
opls_140-7    H    0.50112994    0.47413994    0.73732953    0.09830000
opls_140-8    H    0.53998005    0.40189006    0.70318959    0.16130000
opls_140-9    H    0.50679988    0.39610985    0.83720955    0.16220000
opls_146-10    H    0.53863992    0.40984986    0.43444048    0.12040000
opls_146-11    H    0.56661992    0.34776987    0.13442029    0.11220000
opls_146-12    H    0.60809984    0.43059984    0.78700998    0.10020000
opls_146-13    H    0.59497995    0.31906010    0.99973984    0.11080000
opls_146-14    H    0.68831988    0.39738987    0.76873961    0.11010000
opls_140-15    H    0.54141995    0.45646990    0.94143027    0.16080000
opls_140-16    H    0.47653999    0.43603985    0.61442979    0.16190000
opls_140-17    H    0.47990981    0.43193985    0.82660965    0.16110000
opls_140-18    H    0.49551008    0.38722997    0.62868971    0.09730000
opls_140-19    H    0.39381996    0.01636003    0.66727964    0.06410000
opls_140-20    H    0.35869001    0.97340982    0.60717035    0.06400000
opls_144-21    H    0.44242986    0.06527990    0.24997030    0.10040000
opls_146-22    H    0.50265006    0.09782000    0.12897006    0.10420000
opls_146-23    H    0.59781012    0.23536003    0.64909955    0.11080000
opls_140-24    H    0.50771011    0.07395008    0.81047042    0.15860000
opls_140-25    H    0.54360000    0.11944008    0.82243051    0.10180000
opls_140-26    H    0.52585999    0.02699011    0.73732953    0.09830000
opls_140-27    H    0.59811007    0.13808993    0.70318959    0.16130000
opls_140-28    H    0.60388985    0.11068991    0.83720955    0.16220000
opls_146-29    H    0.59014994    0.12878987    0.43444048    0.12040000
opls_146-30    H    0.65222995    0.21885003    0.13442029    0.11220000
opls_146-31    H    0.56940010    0.17750004    0.78700998    0.10020000
opls_146-32    H    0.68093988    0.27591992    0.99973984    0.11090000
opls_146-33    H    0.60260991    0.29092994    0.76873961    0.11010000
opls_140-34    H    0.54353003    0.08495009    0.94143027    0.16080000
opls_140-35    H    0.56395993    0.04049989    0.61442979    0.16190000
opls_140-36    H    0.56806003    0.04797005    0.82660965    0.16110000
opls_140-37    H    0.61276994    0.10828010    0.62868971    0.09730000
opls_140-38    H    0.98364011    0.37745999    0.66727964    0.06410000
opls_140-39    H    0.02658995    0.38528008    0.60717035    0.06400000
opls_144-40    H    0.93472012    0.37715005    0.24997030    0.10040000
opls_146-41    H    0.90218009    0.40483002    0.12897006    0.10420000
opls_146-42    H    0.76463989    0.36244996    0.64909955    0.11080000
opls_140-43    H    0.92604993    0.43376002    0.81047042    0.15870000
opls_140-44    H    0.88055997    0.42416002    0.82243051    0.10180000
opls_140-45    H    0.97301007    0.49886995    0.73732953    0.09860000
opls_140-46    H    0.86191011    0.46002001    0.70318959    0.16120000
opls_140-47    H    0.88930991    0.49319998    0.83720955    0.16220000
opls_146-48    H    0.87121000    0.46136001    0.43444048    0.12040000
opls_146-49    H    0.78115001    0.43337983    0.13442029    0.11220000
opls_146-50    H    0.82249994    0.39189986    0.78700998    0.10020000
opls_146-51    H    0.72407994    0.40501999    0.99973984    0.11080000
opls_146-52    H    0.70907008    0.31167993    0.76873961    0.11020000
opls_140-53    H    0.91505003    0.45858002    0.94143027    0.16080000
opls_140-54    H    0.95949995    0.52345999    0.61442979    0.16190000
opls_140-55    H    0.95203002    0.52008985    0.82660965    0.16110000
opls_140-56    H    0.89171998    0.50448993    0.62868971    0.09730000
opls_140-57    H    0.60618011    0.62254001    0.33272036    0.06410000
opls_140-58    H    0.64130988    0.61471992    0.39282965    0.06400000
opls_144-59    H    0.55757008    0.62284995    0.75002970    0.10040000
opls_146-60    H    0.49735007    0.59516998    0.87102994    0.10420000
opls_146-61    H    0.40218992    0.63755004    0.35090045    0.11080000
opls_140-62    H    0.49228990    0.56623998    0.18952958    0.15860000
opls_140-63    H    0.45639995    0.57583998    0.17756949    0.10180000
opls_140-64    H    0.47414011    0.50113005    0.26267047    0.09860000
opls_140-65    H    0.40189010    0.53997999    0.29681041    0.16120000
opls_140-66    H    0.39610992    0.50680002    0.16279045    0.16220000
opls_146-67    H    0.40984999    0.53863999    0.56555952    0.12040000
opls_146-68    H    0.34777004    0.56661990    0.86557971    0.11220000
opls_146-69    H    0.43059994    0.60809987    0.21299002    0.10020000
opls_146-70    H    0.31905995    0.59498001    0.00026016    0.11080000
opls_146-71    H    0.39739015    0.68832007    0.23126039    0.11010000
opls_140-72    H    0.45647001    0.54141998    0.05856973    0.16080000
opls_140-73    H    0.43603996    0.47654001    0.38557021    0.16190000
opls_140-74    H    0.43194004    0.47990989    0.17339035    0.16110000
opls_140-75    H    0.38723005    0.49551007    0.37131029    0.09730000
opls_140-76    H    0.01635996    0.39382002    0.33272036    0.06410000
opls_140-77    H    0.97340993    0.35868989    0.39282965    0.06400000
opls_144-78    H    0.06527996    0.44242995    0.75002970    0.10040000
opls_146-79    H    0.09782010    0.50265002    0.87102994    0.10420000
opls_146-80    H    0.23535999    0.59781000    0.35090045    0.11080000
opls_140-81    H    0.07394994    0.50770984    0.18952958    0.15860000
opls_140-82    H    0.11943999    0.54359983    0.17756949    0.10180000
opls_140-83    H    0.02699000    0.52586006    0.26267047    0.09830000
opls_140-84    H    0.13808999    0.59810994    0.29681041    0.16120000
opls_140-85    H    0.11068990    0.60388989    0.16279045    0.16220000
opls_146-86    H    0.12878994    0.59014988    0.56555952    0.12040000
opls_146-87    H    0.21884991    0.65222986    0.86557971    0.11220000
opls_146-88    H    0.17749987    0.56939990    0.21299002    0.10020000
opls_146-89    H    0.27591986    0.68093990    0.00026016    0.11080000
opls_146-90    H    0.29092988    0.60260987    0.23126039    0.11010000
opls_140-91    H    0.08494992    0.54352984    0.05856973    0.16080000
opls_140-92    H    0.04050001    0.56395989    0.38557021    0.16190000
opls_140-93    H    0.04796984    0.56805989    0.17339035    0.16110000
opls_140-94    H    0.10828011    0.61277003    0.37131029    0.09730000
opls_140-95    H    0.37745992    0.98363997    0.33272036    0.06410000
opls_140-96    H    0.38528006    0.02658992    0.39282965    0.06400000
opls_144-97    H    0.37714984    0.93471984    0.75002970    0.10040000
opls_146-98    H    0.40483006    0.90218000    0.87102994    0.10420000
opls_146-99    H    0.36245009    0.76463997    0.35090045    0.11080000
opls_140-100    H    0.43376003    0.92604992    0.18952958    0.15860000
opls_140-101    H    0.42415993    0.88055992    0.17756949    0.10180000
opls_140-102    H    0.49886988    0.97300989    0.26267047    0.09830000
opls_140-103    H    0.46002000    0.86190980    0.29681041    0.16120000
opls_140-104    H    0.49319982    0.88930983    0.16279045    0.16220000
opls_146-105    H    0.46135994    0.87120987    0.56555952    0.12040000
opls_146-106    H    0.43337992    0.78114997    0.86557971    0.11220000
opls_146-107    H    0.39190006    0.82249996    0.21299002    0.10020000
opls_146-108    H    0.40501984    0.72407982    0.00026016    0.11080000
opls_146-109    H    0.31167997    0.70907006    0.23126039    0.11010000
opls_140-110    H    0.45857994    0.91504991    0.05856973    0.16080000
opls_140-111    H    0.52345990    0.95949984    0.38557021    0.16190000
opls_140-112    H    0.52008999    0.95202995    0.17339035    0.16110000
opls_140-113    H    0.50448984    0.89171990    0.37131029    0.09730000
opls_135-114    C    0.55440993    0.46334990    0.82330957    -0.47290000
opls_135-115    C    0.49425989    0.44646996    0.71854003    -0.47290000
opls_166-116    C    0.55667992    0.49464997    0.48832977    0.31650000
opls_700-117    C    0.57690997    0.50927007    0.34696959    -0.03640000
opls_261-118    C    0.57646015    0.41142008    0.07021977    -0.09860000
opls_145-119    C    0.58106991    0.35895984    0.02536945    -0.12920000
opls_145-120    C    0.59709993    0.34260007    0.94753980    -0.13450000
opls_145-121    C    0.62136993    0.38954005    0.75229983    -0.13720000
opls_700-122    C    0.61859001    0.35838995    0.81382038    0.06580000
opls_145-123    C    0.67885987    0.36947994    0.75619981    -0.18900000
opls_135-124    C    0.51611995    0.40442984    0.71406985    -0.47290000
opls_142-125    C    0.59863992    0.54771983    0.31693039    0.05170000
opls_136-126    C    0.60673987    0.61320995    0.58792944    -0.07340000
opls_700-127    C    0.54392010    0.45857002    0.52691970    -0.04180000
opls_145-128    C    0.54792993    0.43727988    0.41231053    -0.17220000
opls_700-129    C    0.56523990    0.45120985    0.26920052    0.11860000
opls_145-130    C    0.58035003    0.48698985    0.23842005    -0.08520000
opls_261-131    C    0.57053991    0.42922984    0.15947018    -0.09160000
opls_700-132    C    0.58602008    0.39110002    0.97011048    0.11610000
opls_145-133    C    0.60492999    0.40573985    0.83012948    -0.13860000
opls_700-134    C    0.64251012    0.34564002    0.76035994    0.05980000
opls_516-135    C    0.52730006    0.44341002    0.69172963    0.23240000
opls_135-136    C    0.53664991    0.09105997    0.82330957    -0.47290000
opls_135-137    C    0.55353001    0.04779008    0.71854003    -0.47280000
opls_166-138    C    0.50534999    0.06202999    0.48832977    0.31660000
opls_700-139    C    0.49073000    0.06763997    0.34696959    -0.03640000
opls_261-140    C    0.58858013    0.16504005    0.07021977    -0.09860000
opls_145-141    C    0.64103993    0.22210993    0.02536945    -0.12920000
opls_145-142    C    0.65739996    0.25450006    0.94753980    -0.13440000
opls_145-143    C    0.61046004    0.23182992    0.75229983    -0.13720000
opls_700-144    C    0.64161003    0.26020002    0.81382038    0.06580000
opls_145-145    C    0.63052002    0.30938010    0.75619981    -0.18900000
opls_135-146    C    0.59556996    0.11168998    0.71406985    -0.47290000
opls_142-147    C    0.45228002    0.05092001    0.31693039    0.05170000
opls_136-148    C    0.38679002    0.99352992    0.58792944    -0.07340000
opls_700-149    C    0.54142999    0.08535001    0.52691970    -0.04170000
opls_145-150    C    0.56271986    0.11064991    0.41231053    -0.17220000
opls_700-151    C    0.54879004    0.11403006    0.26920052    0.11860000
opls_145-152    C    0.51300992    0.09336006    0.23842005    -0.08530000
opls_261-153    C    0.57077012    0.14131011    0.15947018    -0.09160000
opls_700-154    C    0.60889999    0.19491987    0.97011048    0.11610000
opls_145-155    C    0.59425999    0.19919010    0.83012948    -0.13860000
opls_700-156    C    0.65435992    0.29686986    0.76035994    0.05980000
opls_516-157    C    0.55659012    0.08389003    0.69172963    0.23240000
opls_135-158    C    0.90894003    0.44558987    0.82330957    -0.47290000
opls_135-159    C    0.95220987    0.50573996    0.71854003    -0.47290000
opls_166-160    C    0.93797009    0.44332004    0.48832977    0.31650000
opls_700-161    C    0.93236003    0.42308996    0.34696959    -0.03640000
opls_261-162    C    0.83495995    0.42353987    0.07021977    -0.09860000
opls_145-163    C    0.77789003    0.41892996    0.02536945    -0.12920000
opls_145-164    C    0.74549988    0.40289987    0.94753980    -0.13440000
opls_145-165    C    0.76817003    0.37863003    0.75229983    -0.13720000
opls_700-166    C    0.73979996    0.38141003    0.81382038    0.06580000
opls_145-167    C    0.69061988    0.32113996    0.75619981    -0.18890000
opls_135-168    C    0.88830996    0.48387992    0.71406985    -0.47290000
opls_142-169    C    0.94907993    0.40135990    0.31693039    0.05170000
opls_136-170    C    0.00646998    0.39325987    0.58792944    -0.07330000
opls_700-171    C    0.91464992    0.45607997    0.52691970    -0.04180000
opls_145-172    C    0.88935008    0.45206995    0.41231053    -0.17210000
opls_700-173    C    0.88597006    0.43476010    0.26920052    0.11860000
opls_145-174    C    0.90664005    0.41965009    0.23842005    -0.08530000
opls_261-175    C    0.85868997    0.42946006    0.15947018    -0.09160000
opls_700-176    C    0.80508002    0.41397986    0.97011048    0.11610000
opls_145-177    C    0.80081003    0.39507005    0.83012948    -0.13860000
opls_700-178    C    0.70312983    0.35748986    0.76035994    0.05980000
opls_516-179    C    0.91611004    0.47269995    0.69172963    0.23250000
opls_135-180    C    0.46335003    0.55440987    0.17669043    -0.47290000
opls_135-181    C    0.44646992    0.49426004    0.28145997    -0.47290000
opls_166-182    C    0.49465005    0.55667996    0.51167023    0.31650000
opls_700-183    C    0.50927007    0.57691004    0.65303041    -0.03640000
opls_261-184    C    0.41141994    0.57645987    0.92978023    -0.09850000
opls_145-185    C    0.35896006    0.58107004    0.97463055    -0.12920000
opls_145-186    C    0.34259988    0.59709987    0.05246020    -0.13450000
opls_145-187    C    0.38954000    0.62136997    0.24770017    -0.13720000
opls_700-188    C    0.35838994    0.61858997    0.18617962    0.06580000
opls_145-189    C    0.36947992    0.67886004    0.24380019    -0.18900000
opls_135-190    C    0.40443003    0.51612008    0.28593015    -0.47290000
opls_142-191    C    0.54771990    0.59863984    0.68306961    0.05170000
opls_136-192    C    0.61320998    0.60673987    0.41207056    -0.07340000
opls_700-193    C    0.45856995    0.54392003    0.47308030    -0.04180000
opls_145-194    C    0.43728013    0.54793005    0.58768947    -0.17220000
opls_700-195    C    0.45120997    0.56523990    0.73079948    0.11860000
opls_145-196    C    0.48698996    0.58034991    0.76157995    -0.08520000
opls_261-197    C    0.42922991    0.57053994    0.84052982    -0.09160000
opls_700-198    C    0.39110004    0.58601988    0.02988952    0.11620000
opls_145-199    C    0.40573998    0.60492995    0.16987052    -0.13860000
opls_700-200    C    0.34563984    0.64250988    0.23964006    0.05980000
opls_516-201    C    0.44341009    0.52730005    0.30827037    0.23240000
opls_135-202    C    0.09105990    0.53664984    0.17669043    -0.47290000
opls_135-203    C    0.04778992    0.55353004    0.28145997    -0.47290000
opls_166-204    C    0.06202995    0.50535003    0.51167023    0.31650000
opls_700-205    C    0.06763990    0.49072993    0.65303041    -0.03640000
opls_261-206    C    0.16504007    0.58857992    0.92978023    -0.09860000
opls_145-207    C    0.22210994    0.64103990    0.97463055    -0.12920000
opls_145-208    C    0.25449986    0.65739993    0.05246020    -0.13450000
opls_145-209    C    0.23182988    0.61045995    0.24770017    -0.13720000
opls_700-210    C    0.26020006    0.64161005    0.18617962    0.06580000
opls_145-211    C    0.30937993    0.63052006    0.24380019    -0.18900000
opls_135-212    C    0.11168998    0.59556990    0.28593015    -0.47290000
opls_142-213    C    0.05091996    0.45227991    0.68306961    0.05180000
opls_136-214    C    0.99352992    0.38679005    0.41207056    -0.07340000
opls_700-215    C    0.08535008    0.54142998    0.47308030    -0.04180000
opls_145-216    C    0.11064992    0.56271986    0.58768947    -0.17220000
opls_700-217    C    0.11402992    0.54878989    0.73079948    0.11860000
opls_145-218    C    0.09336005    0.51300988    0.76157995    -0.08530000
opls_261-219    C    0.14130994    0.57076990    0.84052982    -0.09160000
opls_700-220    C    0.19492006    0.60889998    0.02988952    0.11610000
opls_145-221    C    0.19919001    0.59425989    0.16987052    -0.13860000
opls_700-222    C    0.29687010    0.65435998    0.23964006    0.05980000
opls_516-223    C    0.08389004    0.55658998    0.30827037    0.23240000
opls_135-224    C    0.44558994    0.90894003    0.17669043    -0.47290000
opls_135-225    C    0.50573993    0.95220992    0.28145997    -0.47290000
opls_166-226    C    0.44332000    0.93797001    0.51167023    0.31650000
opls_700-227    C    0.42309003    0.93236003    0.65303041    -0.03640000
opls_261-228    C    0.42354009    0.83495995    0.92978023    -0.09860000
opls_145-229    C    0.41892999    0.77789007    0.97463055    -0.12920000
opls_145-230    C    0.40289990    0.74549994    0.05246020    -0.13430000
opls_145-231    C    0.37862999    0.76816982    0.24770017    -0.13720000
opls_700-232    C    0.38141000    0.73979998    0.18617962    0.06580000
opls_145-233    C    0.32113992    0.69061990    0.24380019    -0.18900000
opls_135-234    C    0.48387999    0.88831002    0.28593015    -0.47270000
opls_142-235    C    0.40136001    0.94907999    0.68306961    0.05170000
opls_136-236    C    0.39326010    0.00647008    0.41207056    -0.07340000
opls_700-237    C    0.45607998    0.91464999    0.47308030    -0.04180000
opls_145-238    C    0.45206981    0.88934982    0.58768947    -0.17220000
opls_700-239    C    0.43475998    0.88596994    0.73079948    0.11860000
opls_145-240    C    0.41964986    0.90663994    0.76157995    -0.08530000
opls_261-241    C    0.42946001    0.85868989    0.84052982    -0.09160000
opls_700-242    C    0.41398000    0.80507987    0.02988952    0.11610000
opls_145-243    C    0.39506988    0.80080990    0.16987052    -0.13860000
opls_700-244    C    0.35748993    0.70312988    0.23964006    0.05980000
opls_516-245    C    0.47270010    0.91610997    0.30827037    0.23240000
opls_167-246    O    0.54906996    0.51516000    0.59086957    -0.53680000
opls_167-247    O    0.48484007    0.03391010    0.59086957    -0.53690000
opls_167-248    O    0.96608996    0.45092990    0.59086957    -0.53690000
opls_167-249    O    0.51515993    0.54906984    0.40913043    -0.53680000
opls_167-250    O    0.03390996    0.48484000    0.40913043    -0.53690000
opls_167-251    O    0.45092997    0.96608990    0.40913043    -0.53680000
opls_900-252    N    0.58991005    0.56946989    0.37531955    -0.32040000
opls_900-253    N    0.43052991    0.02044004    0.37531955    -0.32040000
opls_900-254    N    0.97956004    0.41009007    0.37531955    -0.32040000
opls_900-255    N    0.56946997    0.58990993    0.62468045    -0.32030000
opls_900-256    N    0.02044003    0.43052985    0.62468045    -0.32040000
opls_900-257    N    0.41008987    0.97955996    0.62468045    -0.32030000
Zn2+-258    Zn    0.55355993    0.55356003    0.50000000    0.76390000
Zn2+-259    Zn    0.44643995    0.00000000    0.50000000    0.76390000
Zn2+-260    Zn    0.99999990    0.44643997    0.50000000    0.76380000
