#======================================================================
# Crystal Data Generated By AuToFF
#----------------------------------------------------------------------

data_AuToFF_phase_1

_cell_length_a                         26.0476
_cell_length_b                         26.0532
_cell_length_c                         6.6553
_cell_angle_alpha                      90.00
_cell_angle_beta                       90.00
_cell_angle_gamma                      120.00
_symmetry_space_group_name_H-M_alt     'P 1'
_symmetry_space_group_IT_number        1

loop_
_space_group_symop_operation_xyz
   'x, y, z'

loop_
   _atom_site_label
   _atom_site_type_symbol
   _atom_site_fract_x
   _atom_site_fract_y
   _atom_site_fract_z
   _atom_site_charge
opls_145-0    C    0.11070014    0.26172010    0.27944045    0.23230000
opls_145-1    C    0.14266984    0.23192982    0.29189969    -0.10800000
opls_145-2    C    0.11395000    0.17013987    0.27932024    -0.07450000
opls_700-3    C    0.05194997    0.13651008    0.25527024    0.08550000
opls_145-4    C    0.01969993    0.16670013    0.24747945    -0.07840000
opls_145-5    C    0.04868025    0.22859025    0.25980046    -0.13050000
opls_145-6    C    0.95931018    0.03669015    0.22856971    -0.07920000
opls_700-7    C    0.92995030    0.97477034    0.21153968    0.07620000
opls_145-8    C    0.96401017    0.94687035    0.20317942    -0.07900000
opls_700-9    C    0.02607010    0.97938015    0.21138040    0.07760000
opls_145-10    C    0.05394993    0.04119005    0.22893033    -0.07820000
opls_700-11    C    0.02133022    0.07065014    0.23772933    0.07990000
opls_145-12    C    0.73875991    0.87256019    0.19528045    0.23370000
opls_145-13    C    0.77204029    0.84446031    0.23019999    -0.13020000
opls_145-14    C    0.83401018    0.87756003    0.23461001    -0.07460000
opls_700-15    C    0.86404004    0.93936017    0.20381951    0.08490000
opls_145-16    C    0.83026998    0.96689009    0.16583024    -0.07450000
opls_145-17    C    0.76837009    0.93360023    0.16073956    -0.10810000
opls_700-18    C    0.06151013    0.94887011    0.20271964    0.07870000
opls_145-19    C    0.03448984    0.88824003    0.15368954    -0.07450000
opls_145-20    C    0.06770018    0.85955024    0.14851021    -0.10800000
opls_145-21    C    0.12815992    0.89017996    0.19334966    0.23230000
opls_145-22    C    0.15584004    0.95098022    0.23865941    -0.13050000
opls_145-23    C    0.12281011    0.97991023    0.24364041    -0.07460000
opls_142-24    C    0.21178021    0.87494022    0.26281009    0.02810000
opls_521-25    C    0.23728992    0.83574018    0.25270987    0.18440000
opls_521-26    C    0.22789010    0.74349026    0.15548059    0.01640000
opls_700-27    C    0.28252013    0.75835991    0.24526017    0.04270000
opls_523-28    C    0.31510000    0.81458006    0.33486995    -0.07260000
opls_522-29    C    0.29250995    0.85312992    0.33952940    -0.10800000
opls_700-30    C    0.30506004    0.71581010    0.24323021    0.08460000
opls_145-31    C    0.36615017    0.73606031    0.23825973    -0.06090000
opls_700-32    C    0.38762997    0.69619013    0.23396992    0.08360000
opls_145-33    C    0.34667008    0.63511995    0.22914068    -0.06010000
opls_700-34    C    0.28524000    0.61338012    0.24019052    0.08360000
opls_145-35    C    0.26528006    0.65448995    0.24965065    -0.06090000
opls_700-36    C    0.45269978    0.71817994    0.23436058    0.04300000
opls_521-37    C    0.49309012    0.77303013    0.14753955    0.01640000
opls_145-38    C    0.49150015    0.87848013    0.68074016    -0.10810000
opls_145-39    C    0.45986000    0.81650004    0.67674034    -0.07450000
opls_700-40    C    0.40007002    0.78511997    0.73726954    0.08450000
opls_145-41    C    0.37275000    0.81737006    0.79974006    -0.07450000
opls_145-42    C    0.40437006    0.87935990    0.80097065    -0.13020000
opls_145-43    C    0.30477008    0.68796994    0.72876955    -0.07900000
opls_700-44    C    0.27270999    0.62585024    0.72868992    0.07980000
opls_145-45    C    0.30418976    0.59529986    0.74303037    -0.07920000
opls_700-46    C    0.36623010    0.62538000    0.75518008    0.07620000
opls_145-47    C    0.39683990    0.68745006    0.75037038    -0.07910000
opls_700-48    C    0.36677986    0.71933006    0.73813953    0.08710000
opls_145-49    C    0.08150984    0.53073985    0.69325049    0.24170000
opls_145-50    C    0.11289018    0.49988011    0.69113038    -0.13020000
opls_145-51    C    0.17480982    0.53069996    0.69987980    -0.07480000
opls_700-52    C    0.20682007    0.59309002    0.71095067    0.08430000
opls_145-53    C    0.17498017    0.62370023    0.70364972    -0.07840000
opls_145-54    C    0.11301016    0.59262997    0.69395069    -0.10810000
opls_700-55    C    0.39886000    0.59225014    0.77596953    0.07890000
opls_145-56    C    0.36948014    0.53035027    0.74950941    -0.07450000
opls_145-57    C    0.40077000    0.49975025    0.76000030    -0.10800000
opls_145-58    C    0.46138978    0.52959992    0.80228990    0.24180000
opls_145-59    C    0.49097979    0.59120993    0.83297973    -0.13020000
opls_145-60    C    0.46001026    0.62217028    0.82021998    -0.07840000
opls_142-61    C    0.54148994    0.51093019    0.89150001    0.02810000
opls_521-62    C    0.56842986    0.47303008    0.87257975    0.19900000
opls_521-63    C    0.56856012    0.39050992    0.71921025    0.01640000
opls_700-64    C    0.61859007    0.40054018    0.83052004    0.04190000
opls_523-65    C    0.64348013    0.44852019    0.96503989    -0.07250000
opls_522-66    C    0.61850984    0.48488990    0.98599011    -0.13040000
opls_700-67    C    0.64419011    0.36116995    0.80589004    0.07990000
opls_145-68    C    0.70587996    0.38487009    0.79804967    -0.06090000
opls_700-69    C    0.73020009    0.34780986    0.77225069    0.07990000
opls_145-70    C    0.69192007    0.28644982    0.75234926    -0.06090000
opls_700-71    C    0.63010002    0.26170016    0.76247953    0.08460000
opls_145-72    C    0.60676993    0.29955019    0.78991030    -0.06090000
opls_700-73    C    0.79550021    0.37287022    0.76870013    0.03750000
opls_521-74    C    0.83293985    0.42615987    0.66770995    0.01500000
opls_521-75    C    0.57522003    0.76268031    0.24695055    0.20800000
opls_522-76    C    0.53685010    0.70740996    0.33241026    -0.10810000
opls_523-77    C    0.47576014    0.68528011    0.32589064    -0.07260000
opls_700-78    C    0.24222005    0.54811009    0.24402957    0.04880000
opls_521-79    C    0.25921987    0.50775992    0.31434045    0.01500000
opls_521-80    C    0.16346995    0.42553007    0.24736977    0.20820000
opls_522-81    C    0.14395012    0.46373998    0.18072964    -0.10800000
opls_523-82    C    0.18320985    0.52474989    0.17898066    -0.07260000
opls_142-83    C    0.12359978    0.36088984    0.24010939    0.02810000
opls_142-84    C    0.63989014    0.78805003    0.25862996    0.02810000
opls_145-85    C    0.46393010    0.91025022    0.73987949    0.23150000
opls_521-86    C    0.91856000    0.42158994    0.76542004    0.17870000
opls_522-87    C    0.88284988    0.36813985    0.86645981    -0.13030000
opls_523-88    C    0.82142993    0.34396990    0.86847926    -0.07240000
opls_700-89    C    0.59002007    0.19643013    0.74616020    0.03810000
opls_521-90    C    0.60586004    0.15682987    0.83093024    0.01500000
opls_521-91    C    0.51584001    0.07355980    0.71918020    0.18910000
opls_522-92    C    0.49792994    0.11126003    0.63416976    -0.13030000
opls_523-93    C    0.53523011    0.17260987    0.64637958    -0.07260000
opls_142-94    C    0.47715991    0.00874983    0.70718976    0.02810000
opls_142-95    C    0.98356010    0.44808009    0.76653945    0.02820000
opls_750-96    N    0.67515001    0.84114023    0.19070966    -0.27520000
opls_750-97    N    0.15938016    0.85777031    0.18960978    -0.27520000
opls_520-98    N    0.20690006    0.78184023    0.16192959    -0.23250000
opls_750-99    N    0.01789995    0.50084985    0.69430980    -0.27160000
opls_750-100    N    0.49167984    0.49629987    0.80175048    -0.27520000
opls_520-101    N    0.54506992    0.42642003    0.74265022    -0.23420000
opls_520-102    N    0.55229996    0.79357994    0.15629048    -0.23210000
opls_520-103    N    0.22018996    0.44854989    0.31353057    -0.23320000
opls_750-104    N    0.14319995    0.32532012    0.28724024    -0.26580000
opls_520-105    N    0.89270990    0.44895986    0.66879930    -0.23420000
opls_520-106    N    0.56906006    0.09731003    0.81492044    -0.23420000
opls_750-107    N    0.49812997    0.97369999    0.74381020    -0.27510000
opls_146-108    H    0.19281991    0.25802020    0.31258997    0.05080000
opls_146-109    H    0.14070000    0.14646011    0.28850991    0.05080000
opls_146-110    H    0.96940993    0.14068998    0.23096029    0.05080000
opls_146-111    H    0.02175003    0.25212995    0.25383980    0.05080000
opls_146-112    H    0.74855013    0.79450004    0.25507941    0.05080000
opls_146-113    H    0.86078987    0.85456990    0.26334951    0.05080000
opls_146-114    H    0.85338017    0.01674000    0.13888931    0.05080000
opls_146-115    H    0.74148006    0.95624998    0.12810993    0.05080000
opls_146-116    H    0.98510016    0.86211021    0.11776930    0.05080000
opls_146-117    H    0.04543999    0.81058010    0.10730996    0.05080000
opls_146-118    H    0.20541998    0.97693010    0.27155049    0.05080000
opls_146-119    H    0.14605027    0.02917023    0.28135020    0.05080000
opls_144-120    H    0.23820003    0.92054020    0.33523958    0.03000000
opls_524-121    H    0.20121008    0.69887997    0.07692065    0.03000000
opls_526-122    H    0.36030011    0.82893028    0.40436043    0.05080000
opls_146-123    H    0.39931018    0.78566025    0.23764969    0.05080000
opls_146-124    H    0.36296977    0.60197990    0.21602031    0.05080000
opls_146-125    H    0.21586026    0.63827028    0.26282962    0.05080000
opls_524-126    H    0.47618006    0.80061012    0.06903971    0.03000000
opls_525-127    H    0.55552982    0.68078996    0.40668039    0.05080000
opls_526-128    H    0.44415012    0.64026029    0.39500999    0.05080000
opls_524-129    H    0.30613981    0.52471000    0.37266990    0.03000000
opls_525-130    H    0.09621001    0.44502017    0.12823013    0.05080000
opls_526-131    H    0.16713994    0.55577007    0.12423933    0.05080000
opls_144-132    H    0.07535986    0.34186998    0.19305065    0.03000000
opls_144-133    H    0.65904980    0.76112997    0.32725046    0.03000000
opls_525-134    H    0.31903023    0.89845023    0.41374994    0.05090000
opls_146-135    H    0.54023001    0.90350015    0.63546948    0.05080000
opls_146-136    H    0.48245983    0.79103991    0.62420928    0.05080000
opls_146-137    H    0.32442994    0.79295989    0.84991961    0.05080000
opls_146-138    H    0.38179008    0.90501016    0.85171968    0.05080000
opls_146-139    H    0.08787003    0.44941991    0.68223972    0.05080000
opls_146-140    H    0.20001016    0.50537014    0.69810978    0.05080000
opls_146-141    H    0.19971006    0.67422027    0.70563010    0.05080000
opls_146-142    H    0.08773999    0.61784013    0.68652052    0.05080000
opls_146-143    H    0.31974990    0.50475009    0.71922979    0.05090000
opls_146-144    H    0.37679993    0.44982987    0.73387976    0.05080000
opls_146-145    H    0.54041990    0.61619006    0.86844019    0.05080000
opls_146-146    H    0.48420008    0.67213010    0.84570042    0.05080000
opls_144-147    H    0.56449028    0.55317021    0.98519977    0.03000000
opls_524-148    H    0.54767004    0.35194987    0.60868932    0.03000000
opls_526-149    H    0.68411976    0.45787988    0.05740988    0.05080000
opls_146-150    H    0.73685996    0.43472000    0.81269064    0.05080000
opls_146-151    H    0.71088003    0.25587019    0.72754046    0.05080000
opls_146-152    H    0.55665007    0.27954020    0.79916007    0.05080000
opls_524-153    H    0.81327005    0.45053989    0.58426066    0.03000000
opls_525-154    H    0.90396997    0.34460014    0.94648926    0.05080000
opls_526-155    H    0.79213996    0.30062984    0.95130948    0.05080000
opls_524-156    H    0.64982006    0.17457994    0.91376948    0.03010000
opls_525-157    H    0.45316018    0.09185014    0.55559028    0.05080000
opls_526-158    H    0.52107991    0.20338009    0.57503043    0.05080000
opls_144-159    H    0.42843006    0.98896986    0.66552973    0.03000000
opls_144-160    H    0.00441001    0.42224988    0.83137049    0.03000000
opls_525-161    H    0.63864994    0.52398003    0.09450062    0.05080000
opls_146-162    H    0.93271007    0.06054985    0.23528015    0.05080000
opls_146-163    H    0.94130017    0.89659008    0.18939041    0.05080000
opls_146-164    H    0.10436008    0.06878999    0.23641008    0.05080000
opls_146-165    H    0.28035990    0.71403992    0.72110048    0.05020000
opls_146-166    H    0.27931996    0.54478026    0.74501976    0.05080000
opls_146-167    H    0.44733986    0.71311007    0.75644975    0.05080000
