#======================================================================
# Crystal Data Generated By AuToFF
#----------------------------------------------------------------------

data_AuToFF_phase_1

_cell_length_a                         25.1799
_cell_length_b                         25.4141
_cell_length_c                         3.7322
_cell_angle_alpha                      90.00
_cell_angle_beta                       90.00
_cell_angle_gamma                      120.00
_symmetry_space_group_name_H-M_alt     'P 1'
_symmetry_space_group_IT_number        1

loop_
_space_group_symop_operation_xyz
   'x, y, z'

loop_
   _atom_site_label
   _atom_site_type_symbol
   _atom_site_fract_x
   _atom_site_fract_y
   _atom_site_fract_z
   _atom_site_charge
opls_145-0    C    0.45293018    0.96639006    0.50086008    0.27940000
opls_145-1    C    0.48345991    0.93517001    0.59333101    -0.12180000
opls_145-2    C    0.45300006    0.87165993    0.58839023    -0.08490000
opls_700-3    C    0.39062978    0.83780963    0.49259954    0.07760000
opls_145-4    C    0.35979988    0.86947994    0.40360109    -0.08510000
opls_145-5    C    0.39047009    0.93300002    0.40845078    -0.14590000
opls_145-6    C    0.29391004    0.73649000    0.45285087    -0.08990000
opls_700-7    C    0.26219001    0.67284997    0.44810032    0.06900000
opls_145-8    C    0.29597010    0.64290985    0.47862923    -0.08990000
opls_700-9    C    0.35995002    0.67500997    0.51331922    0.06910000
opls_145-10    C    0.39023017    0.73867000    0.51767054    -0.09010000
opls_700-11    C    0.35788997    0.77014993    0.48736938    0.07400000
opls_145-12    C    0.06438005    0.57174980    0.38937892    0.21210000
opls_145-13    C    0.09751018    0.54185011    0.46102031    -0.14810000
opls_145-14    C    0.16154017    0.57454998    0.47642945    -0.08500000
opls_700-15    C    0.19407988    0.63776974    0.41824929    0.07760000
opls_145-16    C    0.16060003    0.66701970    0.33560099    -0.08510000
opls_145-17    C    0.09650989    0.63409992    0.32018916    -0.12300000
opls_700-18    C    0.39472993    0.64200977    0.54385081    0.07740000
opls_145-19    C    0.36650003    0.57968010    0.46148116    -0.08500000
opls_145-20    C    0.39925011    0.54879991    0.48672901    -0.12290000
opls_145-21    C    0.46039995    0.57882001    0.59703124    0.21220000
opls_145-22    C    0.48919988    0.64113968    0.67857028    -0.14850000
opls_145-23    C    0.45660974    0.67232974    0.65251058    -0.08930000
opls_142-24    C    0.54453988    0.56073989    0.75327957    0.02550000
opls_521-25    C    0.57056995    0.52025011    0.73060929    0.16300000
opls_521-26    C    0.56038006    0.42631011    0.53881893    0.01360000
opls_700-27    C    0.61949999    0.44297991    0.66440973    0.04550000
opls_523-28    C    0.65384003    0.50032986    0.82788972    -0.08490000
opls_522-29    C    0.62959993    0.53901994    0.85942876    -0.14830000
opls_700-30    C    0.64527998    0.40178997    0.61200900    0.07370000
opls_145-31    C    0.70877019    0.42539004    0.56939071    -0.06320000
opls_700-32    C    0.73290987    0.38692986    0.50509083    0.07690000
opls_145-33    C    0.69234991    0.32430986    0.46749906    -0.09010000
opls_700-34    C    0.62904977    0.29942988    0.51748031    0.07060000
opls_145-35    C    0.60623004    0.33843982    0.59662130    -0.06930000
opls_700-36    C    0.80038979    0.41151997    0.49053105    0.03480000
opls_521-37    C    0.84056009    0.46980998    0.35333048    0.01360000
opls_521-38    C    0.92760000    0.46062975    0.50021971    0.17040000
opls_522-39    C    0.88935979    0.40193991    0.63204008    -0.12280000
opls_523-40    C    0.82598017    0.37762015    0.62843095    -0.08250000
opls_700-41    C    0.58687985    0.23273976    0.48652002    0.04240000
opls_521-42    C    0.60503982    0.19141988    0.60207920    0.05010000
opls_521-43    C    0.50968988    0.10717989    0.42114035    0.33510000
opls_522-44    C    0.48931993    0.14656013    0.30659129    -0.18430000
opls_523-45    C    0.52792988    0.20925011    0.33912974    -0.08270000
MOF2_C_3-46    C    0.46969004    0.04097003    0.38604041    -0.20870000
opls_142-47    C    0.99463986    0.48733987    0.51655056    0.03770000
opls_750-48    N    0.99852024    0.54078011    0.38285998    -0.21790000
opls_750-49    N    0.49155976    0.54453989    0.60885001    -0.31300000
opls_520-50    N    0.53784976    0.46466987    0.57459943    -0.26410000
opls_520-51    N    0.90227011    0.49266990    0.36245110    -0.26640000
opls_238-52    N    0.56663986    0.13062002    0.56671936    -0.31120000
opls_309-53    N    0.48686990    0.03161987    0.51270028    -0.34360000
opls_146-54    H    0.53384996    0.96145986    0.67417073    0.04610000
opls_146-55    H    0.47866978    0.84683992    0.66233053    0.04610000
opls_146-56    H    0.30923991    0.84332004    0.32641873    0.04610000
opls_146-57    H    0.36483990    0.95796996    0.33727024    0.04610000
opls_146-58    H    0.07213989    0.49063985    0.50692085    0.04610000
opls_146-59    H    0.18805984    0.55005984    0.53668882    0.04610000
opls_146-60    H    0.18572014    0.71796008    0.28055035    0.04610000
opls_146-61    H    0.06990971    0.65815979    0.25050908    0.04610000
opls_146-62    H    0.31646010    0.55394002    0.37321955    0.04610000
opls_146-63    H    0.37604990    0.49843975    0.41681046    0.04610000
opls_146-64    H    0.53927008    0.66646993    0.76629066    0.04610000
opls_146-65    H    0.48070012    0.72280985    0.72036868    0.04610000
opls_144-66    H    0.57081973    0.60625982    0.89736081    0.02720000
opls_524-67    H    0.53138999    0.38011001    0.40610900    0.02720000
opls_526-68    H    0.70172984    0.51544986    0.93549917    0.04610000
opls_146-69    H    0.74154996    0.47647990    0.58683886    0.04610000
opls_146-70    H    0.71069990    0.29276995    0.39520122    0.04610000
opls_146-71    H    0.55502973    0.31791982    0.64893093    0.04610000
opls_524-72    H    0.82142981    0.49819985    0.23354054    0.02720000
opls_525-73    H    0.91007968    0.37429973    0.74157869    0.04610000
opls_526-74    H    0.79456972    0.32998974    0.73768019    0.04610000
opls_524-75    H    0.65227976    0.20886981    0.72646964    0.02720000
opls_525-76    H    0.44145983    0.12738002    0.18758909    0.04610000
opls_526-77    H    0.51169019    0.24159013    0.24601040    0.04610000
MOF2_H_b-78    H    0.48716989    0.01284005    0.24423128    0.26500000
opls_144-79    H    0.01517987    0.45896000    0.61641927    0.02720000
opls_146-80    H    0.26766996    0.76211967    0.42831038    0.04610000
opls_146-81    H    0.27143000    0.59114982    0.47559884    0.04610000
opls_146-82    H    0.44224975    0.76597986    0.54629977    0.04610000
opls_525-83    H    0.65760976    0.58562987    0.98918064    0.04610000
opls_910-84    H    0.58139007    0.09832998    0.65797117    0.26780000
MOF2_H_-85    H    0.42124022    0.01784022    0.50068056    0.11830000
MOF2_H_b-86    H    0.46590999    0.05692013    0.63284926    0.25270000
