#======================================================================
# Crystal Data Generated By AuToFF
#----------------------------------------------------------------------

data_AuToFF_phase_1

_cell_length_a                         37.2550
_cell_length_b                         37.2550
_cell_length_c                         3.5159
_cell_angle_alpha                      90.00
_cell_angle_beta                       90.00
_cell_angle_gamma                      120.00
_symmetry_space_group_name_H-M_alt     'P 1'
_symmetry_space_group_IT_number        1

loop_
_space_group_symop_operation_xyz
   'x, y, z'

loop_
   _atom_site_label
   _atom_site_type_symbol
   _atom_site_fract_x
   _atom_site_fract_y
   _atom_site_fract_z
   _atom_site_charge
opls_531-0    C    0.29219998    0.64328978    0.49211013    0.37300000
opls_700-1    C    0.24644999    0.61731979    0.49532979    -0.00250000
opls_523-2    C    0.36498004    0.58628003    0.42002048    -0.17120000
opls_145-3    C    0.38917004    0.56728009    0.42527091    -0.16810000
opls_145-4    C    0.43207009    0.59090007    0.51263119    0.19660000
opls_145-5    C    0.45002004    0.63401994    0.58075884    -0.16970000
opls_523-6    C    0.42563010    0.65277999    0.57325009    -0.17070000
opls_142-7    C    0.44611995    0.53559998    0.58707870    0.08810000
opls_700-8    C    0.47434001    0.51881987    0.58307119    -0.03410000
opls_145-9    C    0.45676994    0.47516007    0.58807987    -0.22380000
opls_166-10    C    0.48135008    0.45625001    0.58038056    0.35480000
opls_531-11    C    0.35671001    0.64891002    0.49211013    0.37300000
opls_700-12    C    0.38267985    0.62912994    0.49532979    -0.00250000
opls_523-13    C    0.41371980    0.77869983    0.42002048    -0.17120000
opls_145-14    C    0.43272009    0.82189006    0.42527091    -0.16810000
opls_145-15    C    0.40910004    0.84116988    0.51263119    0.19660000
opls_145-16    C    0.36597980    0.81599986    0.58075884    -0.16970000
opls_523-17    C    0.34722002    0.77284993    0.57325009    -0.17070000
opls_142-18    C    0.46439987    0.91051978    0.58707870    0.08810000
opls_700-19    C    0.48117983    0.95551978    0.58307119    -0.03410000
opls_145-20    C    0.52483991    0.98161003    0.58807987    -0.22380000
opls_531-21    C    0.35108985    0.70779989    0.49211013    0.37300000
opls_700-22    C    0.37087000    0.75354996    0.49532979    -0.00250000
opls_523-23    C    0.22130001    0.63501983    0.42002048    -0.17120000
opls_145-24    C    0.17810987    0.61082985    0.42527091    -0.16810000
opls_145-25    C    0.15883014    0.56793004    0.51263119    0.19660000
opls_145-26    C    0.18400001    0.54997988    0.58075884    -0.16970000
opls_523-27    C    0.22715015    0.57437008    0.57325009    -0.17070000
opls_142-28    C    0.08948002    0.55387992    0.58707870    0.08810000
opls_700-29    C    0.04448000    0.52566004    0.58307119    -0.03410000
opls_145-30    C    0.01838988    0.54322990    0.58807987    -0.22380000
opls_531-31    C    0.70779986    0.35670991    0.49211013    0.37300000
opls_700-32    C    0.75354985    0.38267990    0.49532979    -0.00250000
opls_523-33    C    0.63501996    0.41371997    0.42002048    -0.17120000
opls_145-34    C    0.61082996    0.43271991    0.42527091    -0.16810000
opls_145-35    C    0.56792991    0.40909993    0.51263119    0.19660000
opls_145-36    C    0.54997996    0.36598006    0.58075884    -0.16970000
opls_523-37    C    0.57436990    0.34722001    0.57325009    -0.17070000
opls_142-38    C    0.55388005    0.46440002    0.58707870    0.08810000
opls_700-39    C    0.52565984    0.48117982    0.58307119    -0.03410000
opls_145-40    C    0.54323006    0.52483993    0.58807987    -0.22380000
opls_166-41    C    0.51864992    0.54374999    0.58038056    0.35480000
opls_531-42    C    0.64328999    0.35108998    0.49211013    0.37300000
opls_700-43    C    0.61732015    0.37087006    0.49532979    -0.00250000
opls_523-44    C    0.58628005    0.22129986    0.42002048    -0.17120000
opls_145-45    C    0.56727991    0.17810994    0.42527091    -0.16810000
opls_145-46    C    0.59089996    0.15883012    0.51263119    0.19660000
opls_145-47    C    0.63402005    0.18399983    0.58075884    -0.16970000
opls_523-48    C    0.65277998    0.22715007    0.57325009    -0.17070000
opls_142-49    C    0.53559997    0.08947991    0.58707870    0.08810000
opls_700-50    C    0.51882001    0.04447991    0.58307119    -0.03410000
opls_145-51    C    0.47516009    0.01838997    0.58807987    -0.22380000
opls_531-52    C    0.64891015    0.29220011    0.49211013    0.37300000
opls_700-53    C    0.62913000    0.24645004    0.49532979    -0.00250000
opls_523-54    C    0.77869984    0.36497986    0.42002048    -0.17120000
opls_145-55    C    0.82188998    0.38916984    0.42527091    -0.16810000
opls_145-56    C    0.84116986    0.43206996    0.51263119    0.19660000
opls_145-57    C    0.81599984    0.45001981    0.58075884    -0.16970000
opls_523-58    C    0.77284985    0.42562992    0.57325009    -0.17070000
opls_142-59    C    0.91051998    0.44612008    0.58707870    0.08810000
opls_700-60    C    0.95552000    0.47433996    0.58307119    -0.03410000
opls_145-61    C    0.98161012    0.45677010    0.58807987    -0.22380000
opls_166-62    C    0.54375009    0.02509997    0.58038056    0.35480000
opls_166-63    C    0.97490010    0.51865002    0.58038056    0.35480000
opls_166-64    C    0.45624991    0.97490003    0.58038056    0.35480000
opls_166-65    C    0.02509990    0.48134998    0.58038056    0.35480000
opls_520-66    N    0.31502012    0.62426008    0.49197929    -0.42500000
opls_750-67    N    0.45873007    0.57437008    0.51899940    -0.28200000
opls_520-68    N    0.37573997    0.69076004    0.49197929    -0.42500000
opls_750-69    N    0.42562991    0.88435980    0.51899940    -0.28130000
opls_520-70    N    0.30923990    0.68497988    0.49197929    -0.42520000
opls_750-71    N    0.11563987    0.54126981    0.51899940    -0.28200000
opls_520-72    N    0.68497988    0.37573992    0.49197929    -0.42500000
opls_750-73    N    0.54126993    0.42562992    0.51899940    -0.28200000
opls_520-74    N    0.62426003    0.30923996    0.49197929    -0.42510000
opls_750-75    N    0.57436994    0.11563989    0.51899940    -0.28200000
opls_520-76    N    0.69075994    0.31501981    0.49197929    -0.42500000
opls_750-77    N    0.88435998    0.45872988    0.51899940    -0.28130000
opls_526-78    H    0.33160990    0.56780979    0.35218010    0.12470000
opls_146-79    H    0.37466985    0.53401988    0.35473136    0.13160000
opls_146-80    H    0.48338009    0.65255001    0.64811001    0.13160000
opls_526-81    H    0.43972989    0.68629001    0.63103046    0.13050000
opls_144-82    H    0.41274982    0.51259989    0.65553059    0.03740000
opls_146-83    H    0.57724003    0.54493987    0.59034102    0.10580000
opls_168-84    H    0.51958985    0.59676981    0.57402941    0.36060000
opls_526-85    H    0.43218981    0.76379984    0.35218010    0.12470000
opls_146-86    H    0.46597998    0.84064979    0.35473136    0.13160000
opls_146-87    H    0.34744980    0.83082980    0.64811001    0.13160000
opls_526-88    H    0.31370990    0.75343993    0.63103046    0.13040000
opls_144-89    H    0.48739990    0.90014995    0.65553059    0.03740000
opls_168-90    H    0.40322987    0.92281995    0.57402941    0.36060000
opls_526-91    H    0.23620013    0.66839006    0.35218010    0.12470000
opls_146-92    H    0.15935002    0.62533001    0.35473136    0.13160000
opls_146-93    H    0.16916996    0.51661988    0.64811001    0.13160000
opls_526-94    H    0.24655994    0.56027006    0.63103046    0.13050000
opls_144-95    H    0.09984986    0.58724985    0.65553059    0.03740000
opls_168-96    H    0.07717986    0.48040992    0.57402941    0.36060000
opls_526-97    H    0.66838995    0.43218990    0.35218010    0.13110000
opls_146-98    H    0.62532999    0.46597981    0.35473136    0.13160000
opls_146-99    H    0.51661991    0.34744999    0.64811001    0.13160000
opls_526-100    H    0.56027011    0.31370999    0.63103046    0.13050000
opls_144-101    H    0.58725003    0.48739980    0.65553059    0.03740000
opls_146-102    H    0.42275981    0.45505982    0.59034102    0.10580000
opls_168-103    H    0.48041000    0.40322988    0.57402941    0.36060000
opls_526-104    H    0.56781003    0.23619985    0.35218010    0.12470000
opls_146-105    H    0.53401987    0.15934990    0.35473136    0.13160000
opls_146-106    H    0.65255005    0.16916989    0.64811001    0.13160000
opls_526-107    H    0.68629010    0.24656007    0.63103046    0.13050000
opls_144-108    H    0.51260010    0.09985005    0.65553059    0.03740000
opls_168-109    H    0.59677013    0.07718005    0.57402941    0.36060000
opls_526-110    H    0.76379987    0.33160994    0.35218010    0.13110000
opls_146-111    H    0.84064998    0.37466999    0.35473136    0.13160000
opls_146-112    H    0.83082989    0.48337981    0.64811001    0.13160000
opls_526-113    H    0.75344006    0.43972994    0.63103046    0.13050000
opls_144-114    H    0.90014998    0.41274984    0.65553059    0.03740000
opls_168-115    H    0.92282014    0.51959008    0.57402941    0.36060000
opls_146-116    H    0.45505994    0.03230000    0.59034102    0.10580000
opls_146-117    H    0.96769987    0.42275983    0.59034102    0.10580000
opls_146-118    H    0.54494006    0.96770000    0.59034102    0.10580000
opls_146-119    H    0.03229998    0.57723986    0.59034102    0.10580000
opls_167-120    O    0.46061008    0.41368990    0.57763019    -0.38990000
opls_167-121    O    0.53938976    0.58630979    0.57763019    -0.38990000
opls_167-122    O    0.58631014    0.04692011    0.57763019    -0.38990000
opls_167-123    O    0.95308004    0.53938999    0.57763019    -0.38990000
opls_167-124    O    0.41368986    0.95307989    0.57763019    -0.38990000
opls_167-125    O    0.04691996    0.46061001    0.57763019    -0.38990000
