#======================================================================
# Crystal Data Generated By AuToFF
#----------------------------------------------------------------------

data_AuToFF_phase_1

_cell_length_a                         41.3805
_cell_length_b                         41.3805
_cell_length_c                         4.7666
_cell_angle_alpha                      90.00
_cell_angle_beta                       90.00
_cell_angle_gamma                      120.00
_symmetry_space_group_name_H-M_alt     'P 1'
_symmetry_space_group_IT_number        1

loop_
_space_group_symop_operation_xyz
   'x, y, z'

loop_
   _atom_site_label
   _atom_site_type_symbol
   _atom_site_fract_x
   _atom_site_fract_y
   _atom_site_fract_z
   _atom_site_charge
opls_185-0    H    0.15474003    0.33408006    0.22307934    0.07750000
opls_185-1    H    0.26882000    0.52029994    0.53506063    0.08340000
opls_185-2    H    0.17955012    0.33016004    0.51299039    0.08770000
opls_185-3    H    0.25731009    0.49031017    0.23178996    0.08340000
opls_146-4    H    0.05712015    0.49886010    0.26017077    0.19240000
opls_146-5    H    0.05925004    0.55603998    0.25746024    0.19240000
opls_146-6    H    0.97734008    0.60369020    0.48733898    0.19260000
opls_146-7    H    0.92352006    0.60773997    0.40333991    0.19350000
opls_146-8    H    0.89632988    0.53510995    0.70080980    0.06830000
opls_146-9    H    0.95255001    0.53416009    0.76768976    0.19330000
opls_146-10    H    0.95167001    0.42367013    0.74950069    0.19230000
opls_146-11    H    0.89363997    0.36942999    0.63960055    0.19300000
opls_146-12    H    0.91007016    0.31385016    0.32894096    0.19310000
opls_146-13    H    0.96550007    0.36745017    0.44557966    0.19260000
opls_146-14    H    0.84361000    0.60861003    0.15841900    0.19230000
opls_146-15    H    0.73222001    0.53721004    0.60328956    0.19230000
opls_144-16    H    0.84758006    0.54058007    0.68609071    0.09280000
opls_144-17    H    0.73220009    0.60859999    0.05511056    0.09420000
opls_185-18    H    0.16608993    0.36364009    0.52889901    0.08300000
opls_185-19    H    0.24387992    0.52380000    0.24431041    0.08690000
opls_185-20    H    0.66591993    0.82065996    0.22307934    0.07750000
opls_185-21    H    0.47970012    0.74852023    0.53506063    0.08340000
opls_185-22    H    0.66984000    0.84939012    0.51299039    0.08770000
opls_185-23    H    0.50969009    0.76699996    0.23178996    0.08340000
opls_146-24    H    0.50113991    0.55826006    0.26017077    0.19240000
opls_146-25    H    0.44396016    0.50321013    0.25746024    0.19250000
opls_146-26    H    0.39630989    0.37364998    0.48733898    0.19260000
opls_146-27    H    0.39226007    0.31578003    0.40333991    0.19330000
opls_146-28    H    0.46489000    0.36121994    0.70080980    0.06830000
opls_146-29    H    0.46584006    0.41839005    0.76768976    0.19330000
opls_146-30    H    0.57633005    0.52800018    0.74950069    0.19240000
opls_146-31    H    0.63057019    0.52421019    0.63960055    0.19300000
opls_146-32    H    0.68615011    0.59622017    0.32894096    0.19310000
opls_146-33    H    0.63255004    0.59805015    0.44557966    0.19260000
opls_146-34    H    0.39139010    0.23499996    0.15841900    0.19230000
opls_146-35    H    0.46279013    0.19501007    0.60328956    0.19230000
opls_144-36    H    0.45942002    0.30700017    0.68609071    0.09280000
opls_144-37    H    0.39139995    0.12360003    0.05511056    0.09420000
opls_185-38    H    0.63635994    0.80245007    0.52889901    0.08300000
opls_185-39    H    0.47620003    0.72008000    0.24431041    0.08690000
opls_185-40    H    0.17934003    0.84525998    0.22307934    0.07750000
opls_185-41    H    0.25148003    0.73118011    0.53506063    0.08340000
opls_185-42    H    0.15061002    0.82045012    0.51299039    0.08780000
opls_185-43    H    0.23299996    0.74269015    0.23178996    0.08340000
opls_146-44    H    0.44174008    0.94288012    0.26017077    0.19240000
opls_146-45    H    0.49679019    0.94075017    0.25746024    0.19240000
opls_146-46    H    0.62635017    0.02266010    0.48733898    0.19260000
opls_146-47    H    0.68422011    0.07648000    0.40333991    0.19330000
opls_146-48    H    0.63878011    0.10367011    0.70080980    0.06830000
opls_146-49    H    0.58160993    0.04744987    0.76768976    0.19330000
opls_146-50    H    0.47200008    0.04832997    0.74950069    0.19240000
opls_146-51    H    0.47578997    0.10636010    0.63960055    0.19300000
opls_146-52    H    0.40377988    0.08992995    0.32894096    0.19310000
opls_146-53    H    0.40195002    0.03449996    0.44557966    0.19260000
opls_146-54    H    0.76499990    0.15639001    0.15841900    0.19230000
opls_146-55    H    0.80499000    0.26778017    0.60328956    0.19230000
opls_144-56    H    0.69300006    0.15242004    0.68609071    0.09280000
opls_144-57    H    0.87639996    0.26779998    0.05511056    0.09420000
opls_185-58    H    0.19755003    0.83391012    0.52889901    0.08300000
opls_185-59    H    0.27992006    0.75612001    0.24431041    0.08690000
opls_185-60    H    0.84525997    0.66591994    0.22307934    0.07750000
opls_185-61    H    0.73118000    0.47970006    0.53506063    0.08340000
opls_185-62    H    0.82044988    0.66983996    0.51299039    0.08770000
opls_185-63    H    0.74269005    0.50969010    0.23178996    0.08340000
opls_146-64    H    0.94287999    0.50114018    0.26017077    0.19240000
opls_146-65    H    0.94074996    0.44396002    0.25746024    0.19240000
opls_146-66    H    0.02266006    0.39631008    0.48733898    0.19260000
opls_146-67    H    0.07647994    0.39226003    0.40333991    0.19330000
opls_146-68    H    0.10367012    0.46489005    0.70080980    0.06830000
opls_146-69    H    0.04745013    0.46584019    0.76768976    0.19330000
opls_146-70    H    0.04833013    0.57633015    0.74950069    0.19230000
opls_146-71    H    0.10636003    0.63057001    0.63960055    0.19300000
opls_146-72    H    0.08992998    0.68615012    0.32894096    0.19310000
opls_146-73    H    0.03450006    0.63255011    0.44557966    0.19260000
opls_146-74    H    0.15639000    0.39138997    0.15841900    0.19230000
opls_146-75    H    0.26777999    0.46278996    0.60328956    0.19230000
opls_144-76    H    0.15241994    0.45941993    0.68609071    0.09280000
opls_144-77    H    0.26779991    0.39140001    0.05511056    0.09420000
opls_185-78    H    0.83391021    0.63636019    0.52889901    0.08300000
opls_185-79    H    0.75612008    0.47620000    0.24431041    0.08690000
opls_185-80    H    0.33408007    0.17934004    0.22307934    0.07750000
opls_185-81    H    0.52030002    0.25148005    0.53506063    0.08340000
opls_185-82    H    0.33016000    0.15060988    0.51299039    0.08770000
opls_185-83    H    0.49030991    0.23300004    0.23178996    0.08340000
opls_146-84    H    0.49886009    0.44173994    0.26017077    0.19240000
opls_146-85    H    0.55603998    0.49679015    0.25746024    0.19240000
opls_146-86    H    0.60369011    0.62635002    0.48733898    0.19260000
opls_146-87    H    0.60773993    0.68421997    0.40333991    0.19330000
opls_146-88    H    0.53511000    0.63878006    0.70080980    0.06830000
opls_146-89    H    0.53415994    0.58160995    0.76768976    0.19330000
opls_146-90    H    0.42367009    0.47200010    0.74950069    0.19230000
opls_146-91    H    0.36942995    0.47579009    0.63960055    0.19300000
opls_146-92    H    0.31385003    0.40378011    0.32894096    0.19320000
opls_146-93    H    0.36745010    0.40195013    0.44557966    0.19260000
opls_146-94    H    0.60860990    0.76500004    0.15841900    0.19230000
opls_146-95    H    0.53721001    0.80499021    0.60328956    0.19230000
opls_144-96    H    0.54058012    0.69300011    0.68609071    0.09280000
opls_144-97    H    0.60860005    0.87639997    0.05511056    0.09420000
opls_185-98    H    0.36364006    0.19754993    0.52889901    0.08300000
opls_185-99    H    0.52379997    0.27992000    0.24431041    0.08690000
opls_185-100    H    0.82065997    0.15474002    0.22307934    0.07750000
opls_185-101    H    0.74852011    0.26882017    0.53506063    0.08340000
opls_185-102    H    0.84939011    0.17955016    0.51299039    0.08770000
opls_185-103    H    0.76700018    0.25731013    0.23178996    0.08340000
opls_146-104    H    0.55825992    0.05711988    0.26017077    0.19240000
opls_146-105    H    0.50320995    0.05925011    0.25746024    0.19240000
opls_146-106    H    0.37364997    0.97734018    0.48733898    0.19260000
opls_146-107    H    0.31577989    0.92352000    0.40333991    0.19330000
opls_146-108    H    0.36122003    0.89633017    0.70080980    0.06830000
opls_146-109    H    0.41839007    0.95255013    0.76768976    0.19330000
opls_146-110    H    0.52799992    0.95167003    0.74950069    0.19230000
opls_146-111    H    0.52421017    0.89364018    0.63960055    0.19300000
opls_146-112    H    0.59622012    0.91007005    0.32894096    0.19310000
opls_146-113    H    0.59804998    0.96550004    0.44557966    0.19260000
opls_146-114    H    0.23500010    0.84360999    0.15841900    0.19230000
opls_146-115    H    0.19501014    0.73222011    0.60328956    0.19230000
opls_144-116    H    0.30700008    0.84758024    0.68609071    0.09280000
opls_144-117    H    0.12360004    0.73220002    0.05511056    0.09420000
opls_185-118    H    0.80244997    0.16608988    0.52889901    0.08300000
opls_185-119    H    0.72007994    0.24387999    0.24431041    0.08690000
opls_145-120    C    0.03183012    0.49868012    0.24737968    -0.23850000
opls_145-121    C    0.03309008    0.53191015    0.24633911    -0.23850000
opls_916-122    C    0.00127997    0.53382998    0.22226954    0.14240000
opls_916-123    C    0.96375999    0.39975014    0.10249024    0.14170000
opls_916-124    C    0.96984994    0.56943998    0.12923048    0.14170000
opls_145-125    C    0.96102009    0.58996009    0.30710989    -0.23940000
opls_145-126    C    0.92974999    0.59168012    0.26300088    -0.23960000
opls_145-127    C    0.90596000    0.57215006    0.04629925    0.17090000
opls_145-128    C    0.91405995    0.55075013    0.87024084    -0.23970000
opls_145-129    C    0.94616992    0.55003996    0.90863928    -0.23990000
opls_145-130    C    0.94268009    0.39967006    0.87569966    -0.23980000
opls_145-131    C    0.90971013    0.36879014    0.81271976    -0.23910000
opls_145-132    C    0.89814006    0.33691013    0.96553099    0.17120000
opls_145-133    C    0.91909007    0.33710016    0.19382998    -0.23910000
opls_145-134    C    0.95138019    0.36812015    0.26094071    -0.23910000
opls_145-135    C    0.81934013    0.59315012    0.03687954    -0.26160000
opls_166-136    C    0.79030997    0.59952015    0.06834012    0.17650000
opls_700-137    C    0.75855991    0.57844001    0.91338900    0.00160000
opls_145-138    C    0.75666995    0.55238003    0.72391012    -0.26190000
opls_166-139    C    0.78598001    0.54612999    0.69123065    0.17430000
opls_700-140    C    0.81732000    0.56646006    0.85323081    0.00240000
opls_142-141    C    0.84792012    0.55943009    0.83888936    0.08990000
opls_142-142    C    0.72735017    0.58379013    0.95713087    0.08960000
opls_181-143    C    0.17407997    0.82456017    0.38567952    -0.23790000
opls_181-144    C    0.25658005    0.75196001    0.37358914    -0.23780000
opls_145-145    C    0.50132008    0.53314995    0.24737968    -0.23850000
opls_145-146    C    0.46809007    0.50118008    0.24633911    -0.23850000
opls_916-147    C    0.46616999    0.46745000    0.22226954    0.14240000
opls_916-148    C    0.60025009    0.56401005    0.10249024    0.14170000
opls_916-149    C    0.43056016    0.40041008    0.12923048    0.14170000
opls_145-150    C    0.41004018    0.37106017    0.30710989    -0.23930000
opls_145-151    C    0.40831999    0.33807012    0.26300088    -0.23950000
opls_145-152    C    0.42784986    0.33380994    0.04629925    0.17090000
opls_145-153    C    0.44924987    0.36330998    0.87024084    -0.23970000
opls_145-154    C    0.44996002    0.39613010    0.90863928    -0.24000000
opls_145-155    C    0.60032992    0.54300999    0.87569966    -0.23980000
opls_145-156    C    0.63121008    0.54091994    0.81271976    -0.23910000
opls_145-157    C    0.66309004    0.56122993    0.96553099    0.17120000
opls_145-158    C    0.66289989    0.58199001    0.19382998    -0.23910000
opls_145-159    C    0.63188009    0.58325994    0.26094071    -0.23910000
opls_145-160    C    0.40685001    0.22618996    0.03687954    -0.26160000
opls_166-161    C    0.40048004    0.19079008    0.06834012    0.17640000
opls_700-162    C    0.42156009    0.18011997    0.91338900    0.00160000
opls_145-163    C    0.44762003    0.20428998    0.72391012    -0.26190000
opls_166-164    C    0.45386999    0.23985003    0.69123065    0.17420000
opls_700-165    C    0.43354011    0.25086002    0.85323081    0.00240000
opls_142-166    C    0.44057009    0.28849002    0.83888936    0.08990000
opls_142-167    C    0.41621015    0.14356010    0.95713087    0.08970000
opls_181-168    C    0.17544011    0.34952015    0.38567952    -0.23790000
opls_181-169    C    0.24804019    0.50462014    0.37358914    -0.23780000
opls_145-170    C    0.46685018    0.96817021    0.24737968    -0.23850000
opls_145-171    C    0.49881999    0.96691005    0.24633911    -0.23850000
opls_916-172    C    0.53255004    0.99872002    0.22226954    0.14240000
opls_916-173    C    0.43599005    0.03624009    0.10249024    0.14180000
opls_916-174    C    0.59958990    0.03014994    0.12923048    0.14180000
opls_145-175    C    0.62894012    0.03898002    0.30710989    -0.23940000
opls_145-176    C    0.66192992    0.07025005    0.26300088    -0.23960000
opls_145-177    C    0.66618990    0.09404000    0.04629925    0.17090000
opls_145-178    C    0.63668993    0.08593989    0.87024084    -0.23970000
opls_145-179    C    0.60387006    0.05382994    0.90863928    -0.23980000
opls_145-180    C    0.45698999    0.05731995    0.87569966    -0.23980000
opls_145-181    C    0.45908002    0.09028992    0.81271976    -0.23910000
opls_145-182    C    0.43876990    0.10185994    0.96553099    0.17120000
opls_145-183    C    0.41800994    0.08091011    0.19382998    -0.23910000
opls_145-184    C    0.41673996    0.04861990    0.26094071    -0.23910000
opls_145-185    C    0.77380986    0.18065992    0.03687954    -0.26160000
opls_166-186    C    0.80921012    0.20969005    0.06834012    0.17650000
opls_700-187    C    0.81988000    0.24144003    0.91338900    0.00160000
opls_145-188    C    0.79571002    0.24333000    0.72391012    -0.26190000
opls_166-189    C    0.76015000    0.21401998    0.69123065    0.17420000
opls_700-190    C    0.74913989    0.18267992    0.85323081    0.00240000
opls_142-191    C    0.71151003    0.15207989    0.83888936    0.08990000
opls_142-192    C    0.85644006    0.27265005    0.95713087    0.08960000
opls_181-193    C    0.65048020    0.82592023    0.38567952    -0.23790000
opls_181-194    C    0.49538015    0.74342013    0.37358914    -0.23790000
opls_145-195    C    0.96817002    0.50132016    0.24737968    -0.23850000
opls_145-196    C    0.96691006    0.46809013    0.24633911    -0.23850000
opls_916-197    C    0.99872003    0.46617002    0.22226954    0.14240000
opls_916-198    C    0.03624015    0.60025014    0.10249024    0.14180000
opls_916-199    C    0.03015006    0.43056002    0.12923048    0.14170000
opls_145-200    C    0.03897991    0.41003991    0.30710989    -0.23930000
opls_145-201    C    0.07025015    0.40832016    0.26300088    -0.23960000
opls_145-202    C    0.09404000    0.42784994    0.04629925    0.17090000
opls_145-203    C    0.08594019    0.44925015    0.87024084    -0.23970000
opls_145-204    C    0.05383008    0.44996004    0.90863928    -0.24000000
opls_145-205    C    0.05731991    0.60032994    0.87569966    -0.23980000
opls_145-206    C    0.09029001    0.63121014    0.81271976    -0.23910000
opls_145-207    C    0.10186008    0.66309015    0.96553099    0.17120000
opls_145-208    C    0.08091007    0.66290012    0.19382998    -0.23910000
opls_145-209    C    0.04861995    0.63188012    0.26094071    -0.23910000
opls_145-210    C    0.18066001    0.40685016    0.03687954    -0.26160000
opls_166-211    C    0.20969017    0.40048012    0.06834012    0.17640000
opls_700-212    C    0.24144009    0.42155999    0.91338900    0.00160000
opls_145-213    C    0.24333005    0.44761997    0.72391012    -0.26190000
opls_166-214    C    0.21401999    0.45387001    0.69123065    0.17420000
opls_700-215    C    0.18268000    0.43353994    0.85323081    0.00240000
opls_142-216    C    0.15208002    0.44057019    0.83888936    0.08990000
opls_142-217    C    0.27264997    0.41621015    0.95713087    0.08960000
opls_181-218    C    0.82592017    0.17544011    0.38567952    -0.23790000
opls_181-219    C    0.74341995    0.24803999    0.37358914    -0.23780000
opls_145-220    C    0.49867992    0.46685005    0.24737968    -0.23850000
opls_145-221    C    0.53190993    0.49881992    0.24633911    -0.23850000
opls_916-222    C    0.53383001    0.53255000    0.22226954    0.14240000
opls_916-223    C    0.39974991    0.43598995    0.10249024    0.14170000
opls_916-224    C    0.56943998    0.59959020    0.12923048    0.14170000
opls_145-225    C    0.58995996    0.62894011    0.30710989    -0.23940000
opls_145-226    C    0.59168015    0.66193016    0.26300088    -0.23960000
opls_145-227    C    0.57215014    0.66619006    0.04629925    0.17090000
opls_145-228    C    0.55075013    0.63669002    0.87024084    -0.23970000
opls_145-229    C    0.55004012    0.60387018    0.90863928    -0.24000000
opls_145-230    C    0.39967008    0.45699001    0.87569966    -0.23980000
opls_145-231    C    0.36878992    0.45908006    0.81271976    -0.23910000
opls_145-232    C    0.33690996    0.43877007    0.96553099    0.17120000
opls_145-233    C    0.33710011    0.41800999    0.19382998    -0.23900000
opls_145-234    C    0.36811991    0.41674006    0.26094071    -0.23890000
opls_145-235    C    0.59314999    0.77381004    0.03687954    -0.26160000
opls_166-236    C    0.59952010    0.80921020    0.06834012    0.17640000
opls_700-237    C    0.57843991    0.81988003    0.91338900    0.00160000
opls_145-238    C    0.55237997    0.79571002    0.72391012    -0.26180000
opls_166-239    C    0.54613001    0.76014997    0.69123065    0.17420000
opls_700-240    C    0.56645989    0.74913998    0.85323081    0.00240000
opls_142-241    C    0.55942991    0.71150998    0.83888936    0.09000000
opls_142-242    C    0.58378999    0.85644018    0.95713087    0.08960000
opls_181-243    C    0.82456003    0.65048012    0.38567952    -0.23790000
opls_181-244    C    0.75195995    0.49538014    0.37358914    -0.23790000
opls_145-245    C    0.53314996    0.03183006    0.24737968    -0.23850000
opls_145-246    C    0.50118001    0.03308995    0.24633911    -0.23850000
opls_916-247    C    0.46744996    0.00127998    0.22226954    0.14240000
opls_916-248    C    0.56401009    0.96376019    0.10249024    0.14170000
opls_916-249    C    0.40041010    0.96985006    0.12923048    0.14170000
opls_145-250    C    0.37105988    0.96101998    0.30710989    -0.23930000
opls_145-251    C    0.33807022    0.92975023    0.26300088    -0.23960000
opls_145-252    C    0.33381010    0.90596000    0.04629925    0.17090000
opls_145-253    C    0.36331007    0.91406011    0.87024084    -0.23960000
opls_145-254    C    0.39612994    0.94617006    0.90863928    -0.24000000
opls_145-255    C    0.54301001    0.94268005    0.87569966    -0.23980000
opls_145-256    C    0.54091998    0.90971008    0.81271976    -0.23910000
opls_145-257    C    0.56123010    0.89814006    0.96553099    0.17120000
opls_145-258    C    0.58199020    0.91909017    0.19382998    -0.23900000
opls_145-259    C    0.58326004    0.95138010    0.26094071    -0.23910000
opls_145-260    C    0.22619014    0.81934008    0.03687954    -0.26160000
opls_166-261    C    0.19079002    0.79031023    0.06834012    0.17640000
opls_700-262    C    0.18012000    0.75855997    0.91338900    0.00160000
opls_145-263    C    0.20428998    0.75667000    0.72391012    -0.26190000
opls_166-264    C    0.23985000    0.78598002    0.69123065    0.17430000
opls_700-265    C    0.25086011    0.81732008    0.85323081    0.00240000
opls_142-266    C    0.28848997    0.84792011    0.83888936    0.08990000
opls_142-267    C    0.14355994    0.72734995    0.95713087    0.08960000
opls_181-268    C    0.34951993    0.17408005    0.38567952    -0.23790000
opls_181-269    C    0.50461999    0.25658015    0.37358914    -0.23790000
opls_239-270    N    0.99738986    0.43188995    0.17204087    -0.03420000
opls_750-271    N    0.86435996    0.30539008    0.89516007    -0.20430000
opls_750-272    N    0.87427009    0.57526001    0.01707926    -0.23760000
opls_239-273    N    0.56811009    0.56550015    0.17204087    -0.03420000
opls_750-274    N    0.69460997    0.55896995    0.89516007    -0.20430000
opls_750-275    N    0.42473996    0.29901001    0.01707926    -0.23760000
opls_239-276    N    0.43450006    0.00260990    0.17204087    -0.03420000
opls_750-277    N    0.44103007    0.13563997    0.89516007    -0.20420000
opls_750-278    N    0.70098995    0.12572998    0.01707926    -0.23760000
opls_239-279    N    0.00261014    0.56811005    0.17204087    -0.03420000
opls_750-280    N    0.13564018    0.69461020    0.89516007    -0.20430000
opls_750-281    N    0.12572991    0.42473999    0.01707926    -0.23760000
opls_239-282    N    0.43189005    0.43450013    0.17204087    -0.03420000
opls_750-283    N    0.30539003    0.44103005    0.89516007    -0.20420000
opls_750-284    N    0.57526004    0.70098999    0.01707926    -0.23760000
opls_239-285    N    0.56549994    0.99739010    0.17204087    -0.03420000
opls_750-286    N    0.55896993    0.86436003    0.89516007    -0.20430000
opls_750-287    N    0.29901005    0.87427002    0.01707926    -0.23760000
opls_179-288    O    0.21466002    0.47979019    0.50396929    -0.16130000
opls_179-289    O    0.20888991    0.37455995    0.25693996    -0.14980000
opls_179-290    O    0.52021020    0.73487020    0.50396929    -0.16140000
opls_179-291    O    0.62543995    0.83433008    0.25693996    -0.14980000
opls_179-292    O    0.26513006    0.78534017    0.50396929    -0.16140000
opls_179-293    O    0.16566990    0.79110997    0.25693996    -0.14970000
opls_179-294    O    0.78534012    0.52021009    0.50396929    -0.16140000
opls_179-295    O    0.79111009    0.62544005    0.25693996    -0.14980000
opls_179-296    O    0.47978994    0.26513008    0.50396929    -0.16140000
opls_179-297    O    0.37456005    0.16566992    0.25693996    -0.14980000
opls_179-298    O    0.73487008    0.21466011    0.50396929    -0.16140000
opls_179-299    O    0.83433010    0.20889003    0.25693996    -0.14980000
