#======================================================================
# Crystal Data Generated By AuToFF
#----------------------------------------------------------------------

data_AuToFF_phase_1

_cell_length_a                         23.5423
_cell_length_b                         23.5423
_cell_length_c                         5.3678
_cell_angle_alpha                      90.00
_cell_angle_beta                       90.00
_cell_angle_gamma                      120.00
_symmetry_space_group_name_H-M_alt     'P 1'
_symmetry_space_group_IT_number        1

loop_
_space_group_symop_operation_xyz
   'x, y, z'

loop_
   _atom_site_label
   _atom_site_type_symbol
   _atom_site_fract_x
   _atom_site_fract_y
   _atom_site_fract_z
   _atom_site_charge
opls_182-0    C    0.13159983    0.63169976    0.80519952    0.05010000
opls_182-1    C    0.36649991    0.96489985    0.96139946    0.05050000
opls_142-2    C    0.22829988    0.46289992    0.65970044    0.02150000
opls_142-3    C    0.53739977    0.77479997    0.58700026    0.01230000
opls_142-4    C    0.78449990    0.54140011    0.56199933    0.02200000
opls_142-5    C    0.46709995    0.21979986    0.55380044    0.01230000
opls_145-6    C    0.61249991    0.49849987    0.38330042    -0.13450000
opls_145-7    C    0.67339988    0.50220004    0.37729982    -0.12270000
opls_700-8    C    0.72120003    0.53939994    0.55649987    0.05080000
opls_145-9    C    0.70719986    0.57319983    0.73929915    -0.12200000
opls_145-10    C    0.64589972    0.56889980    0.74570029    -0.12260000
opls_145-11    C    0.43810008    0.35929995    0.38390029    -0.12370000
opls_145-12    C    0.43579972    0.29879985    0.37620068    -0.13020000
opls_700-13    C    0.46670001    0.28210002    0.56250047    0.05130000
opls_145-14    C    0.49870016    0.32619997    0.75820075    -0.12160000
opls_145-15    C    0.50199980    0.38709981    0.76190059    -0.13660000
opls_145-16    C    0.50739974    0.60799981    0.77860017    -0.13020000
opls_145-17    C    0.50980002    0.66839986    0.78170014    -0.11540000
opls_700-18    C    0.53989995    0.71339984    0.58730020    0.05770000
opls_145-19    C    0.56979990    0.69780015    0.39320019    -0.12390000
opls_145-20    C    0.56769994    0.63740011    0.39110064    -0.12900000
opls_700-21    C    0.53519998    0.59140004    0.58099966    0.05970000
opls_700-22    C    0.59769977    0.53069982    0.56930027    0.06660000
opls_141-23    C    0.53309979    0.52729982    0.57580014    -0.02750000
opls_700-24    C    0.47259990    0.40460011    0.57340065    0.05920000
opls_141-25    C    0.47519984    0.46910006    0.57699989    -0.02840000
opls_145-26    C    0.30889993    0.43239997    0.81009911    -0.12370000
opls_145-27    C    0.36860003    0.43379980    0.78909982    -0.13090000
opls_700-28    C    0.41110019    0.46639998    0.59020083    0.07000000
opls_145-29    C    0.39180003    0.49560016    0.40649987    -0.13260000
opls_145-30    C    0.33180009    0.49370004    0.42509967    -0.12260000
opls_700-31    C    0.29029987    0.46279986    0.62939938    0.05080000
opls_234-32    C    0.50580016    0.12240003    0.36900034    0.43160000
opls_700-33    C    0.50569977    0.05939996    0.37159917    -0.22260000
opls_166-34    C    0.46540003    0.00710017    0.20979917    0.22170000
opls_145-35    C    0.54529992    0.05120013    0.54709937    -0.27110000
opls_234-36    C    0.09320007    0.44290014    0.62030068    0.43160000
opls_145-37    C    0.97480014    0.40640016    0.58580051    -0.27110000
opls_700-38    C    0.03810010    0.45529995    0.65280003    -0.20410000
opls_166-39    C    0.04940010    0.51680013    0.73599985    0.20140000
opls_182-40    C    0.64909982    0.03320004    0.79029956    0.05090000
opls_234-41    C    0.50339988    0.87649982    0.42349939    0.43160000
opls_145-42    C    0.46469981    0.94719993    0.23289988    -0.25770000
opls_700-43    C    0.50430010    0.93949990    0.40880063    -0.19710000
opls_166-44    C    0.54619999    0.99219991    0.56299974    0.19940000
opls_182-45    C    0.85130011    0.32079979    0.34809978    0.05140000
opls_136-46    C    0.78359983    0.28730007    0.22590074    -0.21430000
opls_136-47    C    0.77059992    0.33750012    0.09420060    -0.14380000
opls_136-48    C    0.71020011    0.30420002    0.92599948    -0.14380000
opls_136-49    C    0.69789978    0.35569983    0.80239949    -0.11710000
opls_135-50    C    0.64240018    0.32449997    0.61380081    -0.40740000
opls_234-51    C    0.88140016    0.49720010    0.66780059    0.43140000
opls_700-52    C    0.93380013    0.48059984    0.67169977    -0.21580000
opls_166-53    C    0.92229989    0.41910014    0.58719960    0.21280000
opls_145-54    C    0.99639999    0.52829991    0.75100041    -0.25510000
opls_136-55    C    0.20629973    0.67339980    0.82250084    -0.21250000
opls_136-56    C    0.23179996    0.66429994    0.07430046    -0.14720000
opls_136-57    C    0.30270009    0.67879997    0.05590000    -0.14710000
opls_136-58    C    0.32590017    0.66689997    0.30709974    -0.12290000
opls_135-59    C    0.39080004    0.66790006    0.28099966    -0.40840000
opls_136-60    C    0.33219987    0.98719997    0.77610008    -0.21050000
opls_136-61    C    0.33020012    0.04790019    0.86840046    -0.14670000
opls_136-62    C    0.29180018    0.06740016    0.69070010    -0.14710000
opls_136-63    C    0.29289995    0.12959977    0.78279928    -0.12440000
opls_135-64    C    0.26330013    0.15500021    0.59010023    -0.40840000
opls_136-65    C    0.69659980    0.00819983    0.73439957    -0.21260000
opls_136-66    C    0.68089988    0.94670013    0.88680092    -0.14660000
opls_136-67    C    0.71549986    0.91149992    0.78129960    -0.14710000
opls_136-68    C    0.69680023    0.84890008    0.92999925    -0.12390000
opls_135-69    C    0.72489982    0.80929978    0.81120012    -0.40830000
opls_750-70    N    0.20700008    0.48540015    0.48460077    -0.19070000
opls_750-71    N    0.44600020    0.18200010    0.35940050    -0.19070000
opls_238-72    N    0.44860004    0.12379986    0.34339953    -0.28120000
opls_238-73    N    0.14920028    0.48890021    0.50299937    -0.28730000
opls_750-74    N    0.56390009    0.81709987    0.40810015    -0.19070000
opls_238-75    N    0.56049985    0.87499994    0.39540035    -0.28740000
opls_750-76    N    0.79310003    0.49949996    0.43360036    -0.19050000
opls_238-77    N    0.84879989    0.49239978    0.44980066    -0.28730000
opls_236-78    O    0.55760006    0.17340005    0.39730057    -0.40480000
opls_179-79    O    0.43089987    0.01790003    0.01789933    -0.25050000
opls_236-80    O    0.08730010    0.39079999    0.68830061    -0.40600000
opls_179-81    O    0.11369983    0.56409997    0.80549946    -0.23580000
opls_236-82    O    0.45130014    0.82590004    0.45239949    -0.40600000
opls_179-83    O    0.58289974    0.98189985    0.74600022    -0.27040000
opls_236-84    O    0.86760006    0.51510013    0.85970044    -0.39470000
opls_179-85    O    0.85839990    0.37240015    0.50910056    -0.26820000
opls_185-86    H    0.10879994    0.64270022    0.96579977    0.05570000
opls_185-87    H    0.11579991    0.64420011    0.62789970    0.05580000
opls_185-88    H    0.33669991    0.94729999    0.13469950    0.05570000
opls_185-89    H    0.36930014    0.92360004    0.87379932    0.05620000
opls_144-90    H    0.20210021    0.44640020    0.83469950    0.10220000
opls_144-91    H    0.51300016    0.78430006    0.73890048    0.11930000
opls_144-92    H    0.82290010    0.57669989    0.68189947    0.08500000
opls_144-93    H    0.48590020    0.20560000    0.71199933    0.09920000
opls_146-94    H    0.57670002    0.47049989    0.24369947    0.10290000
opls_146-95    H    0.68310006    0.47610018    0.23270055    0.11130000
opls_146-96    H    0.74320001    0.60190021    0.87999925    0.11170000
opls_146-97    H    0.63570011    0.59469998    0.88990089    0.11300000
opls_146-98    H    0.41379995    0.37109989    0.23990089    0.11210000
opls_146-99    H    0.40980004    0.26540018    0.22469913    0.11280000
opls_146-100    H    0.52190000    0.31409985    0.90660047    0.11660000
opls_146-101    H    0.52720014    0.42070008    0.91130072    0.10290000
opls_146-102    H    0.48429989    0.57419992    0.93009985    0.08830000
opls_146-103    H    0.48770019    0.68000018    0.93520064    0.11530000
opls_146-104    H    0.59410005    0.73170010    0.24200045    0.11550000
opls_146-105    H    0.59070000    0.62609996    0.23920042    0.11280000
opls_146-106    H    0.27739994    0.40790005    0.96799993    0.11100000
opls_146-107    H    0.38229995    0.41040002    0.93059913    0.10640000
opls_146-108    H    0.42319972    0.51969985    0.24980066    0.11240000
opls_146-109    H    0.31800021    0.51660002    0.28090093    0.11520000
opls_910-110    H    0.40489986    0.08059993    0.30940050    0.24490000
opls_146-111    H    0.57389993    0.09040020    0.67770036    0.11110000
opls_910-112    H    0.14820028    0.52710019    0.40829949    0.25870000
opls_146-113    H    0.96749984    0.35940001    0.52500093    0.11260000
opls_185-114    H    0.65379990    0.04839998    0.98860054    0.05610000
opls_185-115    H    0.66369989    0.07719993    0.67220090    0.05570000
opls_910-116    H    0.60210003    0.91749995    0.33559931    0.25070000
opls_146-117    H    0.43560011    0.90690021    0.10829949    0.11590000
opls_185-118    H    0.88889992    0.34080006    0.19739931    0.05510000
opls_185-119    H    0.85689991    0.28369996    0.45699914    0.05570000
opls_140-120    H    0.74519992    0.26059987    0.36879914    0.10250000
opls_140-121    H    0.78150025    0.25090015    0.08879988    0.10550000
opls_140-122    H    0.81389996    0.37089978    0.97969932    0.11290000
opls_140-123    H    0.76289986    0.36720010    0.23649912    0.10210000
opls_140-124    H    0.66649984    0.26999990    0.03730020    0.08120000
opls_140-125    H    0.71840021    0.27550013    0.78050039    0.11290000
opls_140-126    H    0.74289983    0.39229987    0.70470025    0.12280000
opls_140-127    H    0.68529982    0.38150001    0.94679943    0.11900000
opls_140-128    H    0.65600018    0.30250002    0.45899996    0.16490000
opls_140-129    H    0.63209986    0.36210009    0.53649912    0.16420000
opls_140-130    H    0.59780019    0.28560007    0.70600060    0.10040000
opls_910-131    H    0.86089998    0.47440018    0.29309959    0.25870000
opls_146-132    H    0.00349984    0.57479977    0.81740005    0.11260000
opls_140-133    H    0.22169975    0.72599976    0.79649950    0.08120000
opls_140-134    H    0.22730024    0.65860008    0.66729945    0.10200000
opls_140-135    H    0.20099999    0.61299976    0.13860054    0.12450000
opls_140-136    H    0.22810021    0.69700018    0.21489996    0.10550000
opls_140-137    H    0.33529994    0.73059996    0.99730057    0.11650000
opls_140-138    H    0.30540027    0.64600017    0.91289914    0.11670000
opls_140-139    H    0.28910007    0.61829987    0.38289988    0.11290000
opls_140-140    H    0.33199997    0.70530007    0.44200045    0.10250000
opls_140-141    H    0.42950022    0.71640010    0.21199933    0.16450000
opls_140-142    H    0.38549993    0.62919979    0.14940013    0.16450000
opls_140-143    H    0.40539970    0.65809980    0.46530050    0.16410000
opls_140-144    H    0.28130005    0.94619984    0.74649950    0.10550000
opls_140-145    H    0.35819974    0.99799983    0.59510041    0.12290000
opls_140-146    H    0.38119979    0.08969979    0.88309922    0.08120000
opls_140-147    H    0.30670014    0.03760013    0.05530012    0.10550000
opls_140-148    H    0.24020007    0.02670021    0.67789970    0.08120000
opls_140-149    H    0.31390008    0.07619985    0.50209956    0.11770000
opls_140-150    H    0.34410012    0.16879984    0.82069936    0.11290000
opls_140-151    H    0.26459996    0.11879992    0.95910056    0.08130000
opls_140-152    H    0.21169982    0.11709991    0.54970006    0.16150000
opls_140-153    H    0.29229980    0.16809993    0.41489996    0.16150000
opls_140-154    H    0.26410008    0.19949991    0.66310034    0.16370000
opls_140-155    H    0.74749990    0.04760001    0.77719923    0.11900000
opls_140-156    H    0.69450003    0.99770014    0.53200007    0.10620000
opls_140-157    H    0.62719989    0.91170003    0.88529938    0.08120000
opls_140-158    H    0.69669994    0.96149985    0.08249935    0.11290000
opls_140-159    H    0.76950012    0.94480001    0.78899922    0.10560000
opls_140-160    H    0.70080008    0.89830015    0.58339916    0.10550000
opls_140-161    H    0.64259999    0.81770021    0.93740080    0.10200000
opls_140-162    H    0.71549971    0.86199979    0.12400052    0.11900000
opls_140-163    H    0.70580008    0.79460012    0.61870040    0.16410000
opls_140-164    H    0.71009993    0.76420023    0.92240024    0.16150000
opls_140-165    H    0.77930000    0.83870007    0.80590000    0.16410000
