#======================================================================
# Crystal Data Generated By AuToFF
#----------------------------------------------------------------------

data_AuToFF_phase_1

_cell_length_a                         44.7306
_cell_length_b                         44.7306
_cell_length_c                         3.5746
_cell_angle_alpha                      90.00
_cell_angle_beta                       90.00
_cell_angle_gamma                      120.00
_symmetry_space_group_name_H-M_alt     'P 1'
_symmetry_space_group_IT_number        1

loop_
_space_group_symop_operation_xyz
   'x, y, z'

loop_
   _atom_site_label
   _atom_site_type_symbol
   _atom_site_fract_x
   _atom_site_fract_y
   _atom_site_fract_z
   _atom_site_charge
opls_145-0    C    0.34911007    0.70219997    0.00000000    0.08400000
opls_145-1    C    0.36881993    0.68581986    0.00000000    -0.14090000
opls_700-2    C    0.37422993    0.63282000    0.00000000    0.08350000
opls_145-3    C    0.41037986    0.65255987    0.00000000    -0.09070000
opls_145-4    C    0.43033003    0.63657989    0.00000000    -0.10800000
opls_145-5    C    0.41453994    0.60063984    0.00000000    0.23880000
opls_145-6    C    0.37841002    0.58072985    0.00000000    -0.13050000
opls_145-7    C    0.35847003    0.59671990    0.00000000    -0.09070000
opls_142-8    C    0.42327001    0.55196986    0.00000000    0.10190000
opls_700-9    C    0.44588996    0.53708983    0.00000000    0.07920000
opls_145-10    C    0.43120002    0.50127008    0.00000000    -0.08930000
opls_145-11    C    0.45223994    0.48646001    0.00000000    -0.09070000
opls_700-12    C    0.48830002    0.50729984    0.00000000    0.07550000
opls_145-13    C    0.50284991    0.54327990    0.00000000    -0.09070000
opls_145-14    C    0.48182988    0.55808997    0.00000000    -0.08930000
opls_145-15    C    0.29780000    0.64690984    0.00000000    0.08410000
opls_145-16    C    0.31417994    0.68299988    0.00000000    -0.14090000
opls_700-17    C    0.36717987    0.74140995    0.00000000    0.08340000
opls_145-18    C    0.34744005    0.75782000    0.00000000    -0.09060000
opls_145-19    C    0.36342004    0.79374999    0.00000000    -0.10800000
opls_145-20    C    0.39935979    0.81389979    0.00000000    0.23880000
opls_145-21    C    0.41927008    0.79767999    0.00000000    -0.13050000
opls_145-22    C    0.40328003    0.76175001    0.00000000    -0.09070000
opls_142-23    C    0.44802989    0.87130000    0.00000000    0.10180000
opls_700-24    C    0.46291007    0.90880003    0.00000000    0.07920000
opls_145-25    C    0.49873003    0.92993001    0.00000000    -0.08940000
opls_145-26    C    0.51353992    0.96577997    0.00000000    -0.09070000
opls_700-27    C    0.49270005    0.98099997    0.00000000    0.07550000
opls_145-28    C    0.45672004    0.95957002    0.00000000    -0.09070000
opls_145-29    C    0.44191003    0.92373994    0.00000000    -0.08930000
opls_145-30    C    0.35309002    0.65088993    0.00000000    0.08400000
opls_145-31    C    0.31700000    0.63118000    0.00000000    -0.14090000
opls_700-32    C    0.25858998    0.62577005    0.00000000    0.08340000
opls_145-33    C    0.24217997    0.58961987    0.00000000    -0.09070000
opls_145-34    C    0.20625003    0.56966986    0.00000000    -0.10800000
opls_145-35    C    0.18610001    0.58545985    0.00000000    0.23880000
opls_145-36    C    0.20231999    0.62158990    0.00000000    -0.13050000
opls_145-37    C    0.23824981    0.64152983    0.00000000    -0.09070000
opls_142-38    C    0.12869997    0.57672988    0.00000000    0.10180000
opls_700-39    C    0.09119984    0.55410988    0.00000000    0.07920000
opls_145-40    C    0.07006994    0.56879991    0.00000000    -0.08940000
opls_145-41    C    0.03421991    0.54776002    0.00000000    -0.07260000
opls_700-42    C    0.01900002    0.51169993    0.00000000    0.07550000
opls_145-43    C    0.04043005    0.49715007    0.00000000    -0.09070000
opls_145-44    C    0.07625996    0.51816983    0.00000000    -0.08930000
opls_145-45    C    0.65088993    0.29780003    0.00000000    0.08400000
opls_145-46    C    0.63117994    0.31417988    0.00000000    -0.14090000
opls_700-47    C    0.62577007    0.36718000    0.00000000    0.08340000
opls_145-48    C    0.58962001    0.34743987    0.00000000    -0.09070000
opls_145-49    C    0.56966985    0.36341985    0.00000000    -0.10800000
opls_145-50    C    0.58545993    0.39935990    0.00000000    0.23890000
opls_145-51    C    0.62158985    0.41926989    0.00000000    -0.13050000
opls_145-52    C    0.64152984    0.40327984    0.00000000    -0.09070000
opls_142-53    C    0.57672986    0.44802988    0.00000000    0.10180000
opls_700-54    C    0.55410992    0.46290991    0.00000000    0.07930000
opls_145-55    C    0.56879998    0.49872992    0.00000000    -0.08940000
opls_145-56    C    0.54776006    0.51353999    0.00000000    -0.09060000
opls_700-57    C    0.51169985    0.49269990    0.00000000    0.07550000
opls_145-58    C    0.49714996    0.45671984    0.00000000    -0.09070000
opls_145-59    C    0.51817012    0.44191003    0.00000000    -0.08930000
opls_145-60    C    0.70219987    0.35308990    0.00000000    0.08410000
opls_145-61    C    0.68581993    0.31699986    0.00000000    -0.14090000
opls_700-62    C    0.63282013    0.25859005    0.00000000    0.08340000
opls_145-63    C    0.65255995    0.24218000    0.00000000    -0.09070000
opls_145-64    C    0.63657996    0.20625001    0.00000000    -0.10800000
opls_145-65    C    0.60064008    0.18609995    0.00000000    0.23880000
opls_145-66    C    0.58072992    0.20232001    0.00000000    -0.13050000
opls_145-67    C    0.59671997    0.23824999    0.00000000    -0.09070000
opls_142-68    C    0.55197011    0.12870000    0.00000000    0.10190000
opls_700-69    C    0.53708993    0.09119997    0.00000000    0.07920000
opls_145-70    C    0.50126997    0.07006999    0.00000000    -0.08930000
opls_145-71    C    0.48646008    0.03422003    0.00000000    -0.09060000
opls_700-72    C    0.50729995    0.01900003    0.00000000    0.07550000
opls_145-73    C    0.54327996    0.04042998    0.00000000    -0.09070000
opls_145-74    C    0.55808997    0.07626006    0.00000000    -0.08920000
opls_145-75    C    0.64690998    0.34911007    0.00000000    0.08400000
opls_145-76    C    0.68300000    0.36882000    0.00000000    -0.14090000
opls_700-77    C    0.74141002    0.37422995    0.00000000    0.08340000
opls_145-78    C    0.75781991    0.41037988    0.00000000    -0.09070000
opls_145-79    C    0.79374985    0.43032988    0.00000000    -0.10790000
opls_145-80    C    0.81389986    0.41453989    0.00000000    0.23880000
opls_145-81    C    0.79767988    0.37840984    0.00000000    -0.13050000
opls_145-82    C    0.76175006    0.35846991    0.00000000    -0.09060000
opls_142-83    C    0.87129990    0.42326986    0.00000000    0.10190000
opls_700-84    C    0.90880003    0.44588986    0.00000000    0.07920000
opls_145-85    C    0.92992993    0.43119983    0.00000000    -0.08940000
opls_145-86    C    0.96578009    0.45223998    0.00000000    -0.07260000
opls_700-87    C    0.98099998    0.48830007    0.00000000    0.07550000
opls_145-88    C    0.95956995    0.50284993    0.00000000    -0.09070000
opls_145-89    C    0.92373991    0.48182991    0.00000000    -0.08930000
opls_750-90    N    0.43572000    0.58504992    0.00000000    -0.23440000
opls_750-91    N    0.41494983    0.85066978    0.00000000    -0.23430000
opls_750-92    N    0.14933004    0.56428004    0.00000000    -0.23440000
opls_750-93    N    0.56428000    0.41495008    0.00000000    -0.23440000
opls_750-94    N    0.58505004    0.14932996    0.00000000    -0.23440000
opls_750-95    N    0.85066996    0.43571996    0.00000000    -0.23420000
opls_146-96    H    0.39820992    0.70186980    0.00000000    0.05080000
opls_146-97    H    0.42371992    0.68195000    0.00000000    0.05070000
opls_146-98    H    0.45970011    0.65289004    0.00000000    0.05080000
opls_146-99    H    0.36521999    0.55135005    0.00000000    0.05070000
opls_146-100    H    0.32912010    0.58018000    0.00000000    0.05070000
opls_144-101    H    0.39413998    0.53380003    0.00000000    0.03000000
opls_146-102    H    0.40192983    0.48399988    0.00000000    0.05070000
opls_146-103    H    0.44013996    0.45717985    0.00000000    0.05070000
opls_146-104    H    0.53209994    0.56069982    0.00000000    0.05070000
opls_146-105    H    0.49392996    0.58736987    0.00000000    0.05070000
opls_146-106    H    0.29802997    0.69622984    0.00000000    0.05070000
opls_146-107    H    0.31804993    0.74176980    0.00000000    0.05070000
opls_146-108    H    0.34710989    0.80680983    0.00000000    0.05080000
opls_146-109    H    0.44864999    0.81386985    0.00000000    0.05070000
opls_146-110    H    0.41981984    0.74893980    0.00000000    0.05070000
opls_144-111    H    0.46619988    0.86033992    0.00000000    0.03000000
opls_146-112    H    0.51599993    0.91792986    0.00000000    0.05070000
opls_146-113    H    0.54282004    0.98296988    0.00000000    0.05070000
opls_146-114    H    0.43929990    0.97139980    0.00000000    0.05070000
opls_146-115    H    0.41261994    0.90662980    0.00000000    0.05070000
opls_146-116    H    0.30365994    0.60178988    0.00000000    0.05070000
opls_146-117    H    0.25823002    0.57627994    0.00000000    0.05070000
opls_146-118    H    0.19318987    0.54029987    0.00000000    0.05080000
opls_146-119    H    0.18612989    0.63477984    0.00000000    0.05070000
opls_146-120    H    0.25131981    0.67089982    0.00000000    0.05070000
opls_144-121    H    0.13965992    0.60586006    0.00000000    0.03000000
opls_146-122    H    0.08207010    0.59807000    0.00000000    0.05070000
opls_146-123    H    0.01703001    0.55985982    0.00000000    0.05010000
opls_146-124    H    0.02859990    0.46789986    0.00000000    0.05070000
opls_146-125    H    0.09337005    0.50599001    0.00000000    0.05080000
opls_146-126    H    0.60178995    0.29812994    0.00000000    0.05070000
opls_146-127    H    0.57628008    0.31805000    0.00000000    0.05070000
opls_146-128    H    0.54029989    0.34710996    0.00000000    0.05070000
opls_146-129    H    0.63478001    0.44864995    0.00000000    0.05070000
opls_146-130    H    0.67090003    0.41957992    0.00000000    0.05070000
opls_144-131    H    0.60586002    0.46619997    0.00000000    0.03000000
opls_146-132    H    0.59807004    0.51599986    0.00000000    0.05070000
opls_146-133    H    0.55985991    0.54281989    0.00000000    0.05070000
opls_146-134    H    0.46789993    0.43929992    0.00000000    0.05080000
opls_146-135    H    0.50599012    0.41262006    0.00000000    0.05070000
opls_146-136    H    0.70196991    0.30376991    0.00000000    0.05070000
opls_146-137    H    0.68194994    0.25822994    0.00000000    0.05070000
opls_146-138    H    0.65288998    0.19318991    0.00000000    0.05070000
opls_146-139    H    0.55134988    0.18612989    0.00000000    0.05070000
opls_146-140    H    0.58018003    0.25105995    0.00000000    0.05080000
opls_144-141    H    0.53380012    0.13966008    0.00000000    0.03000000
opls_146-142    H    0.48399994    0.08206988    0.00000000    0.05070000
opls_146-143    H    0.45717996    0.01703012    0.00000000    0.05070000
opls_146-144    H    0.56069997    0.02859994    0.00000000    0.05070000
opls_146-145    H    0.58736998    0.09343990    0.00000000    0.05080000
opls_146-146    H    0.69633993    0.39820986    0.00000000    0.05070000
opls_146-147    H    0.74176998    0.42372006    0.00000000    0.05070000
opls_146-148    H    0.80681000    0.45969987    0.00000000    0.05070000
opls_146-149    H    0.81386998    0.36521990    0.00000000    0.05080000
opls_146-150    H    0.74868006    0.32909992    0.00000000    0.05070000
opls_144-151    H    0.86034008    0.39413994    0.00000000    0.03000000
opls_146-152    H    0.91792990    0.40193000    0.00000000    0.05070000
opls_146-153    H    0.98296986    0.44013993    0.00000000    0.05010000
opls_146-154    H    0.97139997    0.53209988    0.00000000    0.05070000
opls_146-155    H    0.90655998    0.49392997    0.00000000    0.05070000
