#======================================================================
# Crystal Data Generated By AuToFF
#----------------------------------------------------------------------

data_AuToFF_phase_1

_cell_length_a                         20.7444
_cell_length_b                         20.7444
_cell_length_c                         4.1175
_cell_angle_alpha                      90.00
_cell_angle_beta                       90.00
_cell_angle_gamma                      120.00
_symmetry_space_group_name_H-M_alt     'P 1'
_symmetry_space_group_IT_number        1

loop_
_space_group_symop_operation_xyz
   'x, y, z'

loop_
   _atom_site_label
   _atom_site_type_symbol
   _atom_site_fract_x
   _atom_site_fract_y
   _atom_site_fract_z
   _atom_site_charge
opls_145-0    C    0.89995987    0.10515007    0.20737098    -0.21920000
opls_145-1    C    0.89484996    0.79480974    0.20737098    -0.21920000
opls_145-2    C    0.20519016    0.10004019    0.20737098    -0.21920000
opls_145-3    C    0.95197987    0.08146982    0.17737948    -0.21920000
opls_145-4    C    0.91853004    0.87051006    0.17737948    -0.21920000
opls_145-5    C    0.12948990    0.04801010    0.17737948    -0.21920000
opls_916-6    C    0.94393993    0.01772985    0.33914997    0.15430000
opls_916-7    C    0.98227019    0.92621004    0.33914997    0.15450000
opls_916-8    C    0.07378988    0.05606011    0.33914997    0.15450000
opls_145-9    C    0.87609003    0.97510963    0.51124954    -0.21890000
opls_145-10    C    0.02489019    0.90097010    0.51124954    -0.21890000
opls_145-11    C    0.09903019    0.12391025    0.51124954    -0.21890000
opls_145-12    C    0.82359004    0.99839968    0.55020036    -0.21940000
opls_145-13    C    0.00160003    0.82518962    0.55020036    -0.21940000
opls_145-14    C    0.17481013    0.17641014    0.55020036    -0.21940000
opls_145-15    C    0.83755008    0.06545996    0.40683910    0.19510000
opls_145-16    C    0.93453966    0.77207966    0.40683910    0.19510000
opls_145-17    C    0.22791991    0.16244981    0.40683910    0.19510000
opls_700-18    C    0.77950976    0.55065966    0.58261081    0.04880000
opls_700-19    C    0.44933992    0.22884992    0.58261081    0.04880000
opls_700-20    C    0.77115004    0.22048986    0.58261081    0.04880000
opls_700-21    C    0.73652996    0.47131006    0.54049059    0.09090000
opls_700-22    C    0.52868977    0.26521972    0.54049059    0.09090000
opls_700-23    C    0.73478027    0.26347022    0.54049059    0.09090000
opls_145-24    C    0.74182003    0.41292990    0.70121919    -0.14920000
opls_145-25    C    0.58706013    0.32888009    0.70121919    -0.14920000
opls_145-26    C    0.67112013    0.25817999    0.70121919    -0.14920000
opls_700-27    C    0.82183014    0.44974000    0.81367092    0.11050000
opls_700-28    C    0.55025981    0.37208979    0.81367092    0.11050000
opls_700-29    C    0.62791004    0.17817022    0.81367092    0.11050000
opls_700-30    C    0.86803961    0.52969967    0.87792107    0.04710000
opls_700-31    C    0.47029997    0.33834006    0.87792107    0.04710000
opls_700-32    C    0.66165965    0.13195971    0.87792107    0.04710000
opls_700-33    C    0.84975985    0.58046009    0.73249059    -0.00100000
opls_700-34    C    0.41953982    0.26929983    0.73249059    -0.00100000
opls_700-35    C    0.73069986    0.15024008    0.73249059    -0.00100000
opls_142-36    C    0.75742984    0.09908000    0.71288889    0.10210000
opls_142-37    C    0.90091997    0.65834965    0.71288889    0.10210000
opls_142-38    C    0.34164991    0.24256979    0.71288889    0.10210000
opls_148-39    C    0.43610026    0.37632019    0.07254888    -0.46000000
opls_148-40    C    0.62368017    0.05978009    0.07254888    -0.47250000
opls_148-41    C    0.94022004    0.56389972    0.07254888    -0.47250000
opls_148-42    C    0.57956976    0.45617968    0.82533090    -0.45770000
opls_148-43    C    0.54381972    0.12338980    0.82533090    -0.45760000
opls_148-44    C    0.87660977    0.42042997    0.82533090    -0.45770000
opls_148-45    C    0.39823011    0.14901994    0.46876017    -0.49060000
opls_148-46    C    0.85097976    0.24920986    0.46876017    -0.49080000
opls_148-47    C    0.75078986    0.60176965    0.46876017    -0.49080000
opls_148-48    C    0.54934978    0.23514988    0.27942927    -0.45060000
opls_148-49    C    0.76485006    0.31420002    0.27942927    -0.45060000
opls_148-50    C    0.68580016    0.45065009    0.27942927    -0.45040000
opls_750-51    N    0.30136992    0.20206978    0.45803036    -0.29680000
opls_750-52    N    0.79792995    0.09929987    0.45803036    -0.28880000
opls_750-53    N    0.90069985    0.69862979    0.45803036    -0.29670000
opls_239-54    N    0.00000000    0.00000000    0.33265088    -0.14520000
opls_146-55    H    0.90918989    0.15246994    0.09029994    0.21970000
opls_146-56    H    0.84752996    0.75671994    0.09029994    0.21970000
opls_146-57    H    0.24328014    0.09081011    0.09029994    0.21980000
opls_146-58    H    0.86400993    0.92624009    0.61412022    0.21950000
opls_146-59    H    0.07376005    0.93777964    0.61412022    0.22030000
opls_146-60    H    0.06221981    0.13598973    0.61412022    0.22030000
opls_146-61    H    0.77666989    0.96746985    0.68522890    0.21970000
opls_146-62    H    0.03252985    0.80919980    0.68522890    0.21970000
opls_146-63    H    0.19079999    0.22332980    0.68522890    0.21980000
opls_144-64    H    0.74887989    0.06196988    0.88971949    0.10330000
opls_144-65    H    0.93802987    0.68690990    0.88971949    0.10330000
opls_144-66    H    0.31309024    0.25112022    0.88971949    0.10330000
opls_702-67    H    0.38209995    0.34074972    0.17935883    0.10680000
opls_702-68    H    0.65925022    0.04134999    0.17935883    0.10680000
opls_702-69    H    0.95865003    0.61789974    0.17935883    0.10680000
opls_702-70    H    0.43245000    0.41809990    0.92542077    0.11780000
opls_702-71    H    0.58190003    0.01433996    0.92542077    0.10710000
opls_702-72    H    0.98565990    0.56755012    0.92542077    0.10710000
opls_702-73    H    0.46878015    0.40199987    0.28621008    0.10620000
opls_702-74    H    0.59799978    0.06678976    0.28621008    0.10620000
opls_702-75    H    0.93320985    0.53121984    0.28621008    0.12700000
opls_702-76    H    0.55489976    0.47270999    0.63368063    0.10770000
opls_702-77    H    0.52728988    0.08219010    0.63368063    0.10780000
opls_702-78    H    0.91780988    0.44509991    0.63368063    0.10770000
opls_702-79    H    0.63710005    0.49099981    0.79762963    0.14540000
opls_702-80    H    0.50899987    0.14609984    0.79762963    0.14540000
opls_702-81    H    0.85389981    0.36289979    0.79762963    0.14540000
opls_702-82    H    0.56915997    0.47797016    0.04553005    0.10680000
opls_702-83    H    0.52202995    0.09118973    0.04553005    0.10680000
opls_702-84    H    0.90881007    0.43084010    0.04553005    0.10680000
opls_702-85    H    0.42398003    0.11534980    0.42973892    0.10640000
opls_702-86    H    0.88464984    0.30862980    0.42973892    0.10640000
opls_702-87    H    0.69136986    0.57601983    0.42973892    0.10640000
opls_702-88    H    0.37426012    0.15000017    0.23554098    0.10770000
opls_702-89    H    0.85000013    0.22426995    0.23554098    0.10870000
opls_702-90    H    0.77572981    0.62573990    0.23554098    0.10760000
opls_702-91    H    0.35373024    0.11816024    0.64349970    0.10490000
opls_702-92    H    0.88183995    0.23557014    0.64349970    0.10490000
opls_702-93    H    0.76443009    0.64627017    0.64349970    0.10490000
opls_702-94    H    0.51087998    0.22603002    0.09496053    0.14530000
opls_702-95    H    0.77396986    0.28484992    0.09496053    0.14520000
opls_702-96    H    0.71515017    0.48912006    0.09496053    0.14520000
opls_702-97    H    0.54644011    0.18496002    0.33334062    0.14560000
opls_702-98    H    0.81504989    0.36147982    0.33334062    0.14560000
opls_702-99    H    0.63852012    0.45356016    0.33334062    0.14560000
opls_702-100    H    0.60372003    0.26958984    0.19773892    0.14530000
opls_702-101    H    0.73041022    0.33412023    0.19773892    0.14530000
opls_702-102    H    0.66588017    0.39627991    0.19773892    0.14530000
opls_146-103    H    0.99761991    0.11312995    0.04241894    0.21960000
opls_146-104    H    0.88687000    0.88448989    0.04241894    0.21950000
opls_146-105    H    0.11551009    0.00238016    0.04241894    0.21950000
MOF2_B_2-106    B    0.66666972    0.33332981    0.70417972    0.17830000
