#======================================================================
# Crystal Data Generated By AuToFF
#----------------------------------------------------------------------

data_AuToFF_phase_1

_cell_length_a                         18.3630
_cell_length_b                         18.3630
_cell_length_c                         37.6578
_cell_angle_alpha                      90.00
_cell_angle_beta                       90.00
_cell_angle_gamma                      90.00
_symmetry_space_group_name_H-M_alt     'P 1'
_symmetry_space_group_IT_number        1

loop_
_space_group_symop_operation_xyz
   'x, y, z'

loop_
   _atom_site_label
   _atom_site_type_symbol
   _atom_site_fract_x
   _atom_site_fract_y
   _atom_site_fract_z
   _atom_site_charge
opls_700-0    C    0.47347982    0.47352992    0.56003006    0.01120000
opls_145-1    C    0.43991015    0.44000980    0.58884003    -0.07710000
opls_700-2    C    0.38645973    0.38664978    0.58227007    -0.04210000
opls_166-3    C    0.36749986    0.36776997    0.54691989    0.28790000
opls_145-4    C    0.40284975    0.40305996    0.51827005    -0.16980000
opls_700-5    C    0.45553014    0.45562000    0.52550999    0.04520000
opls_145-6    C    0.27802973    0.27837009    0.67044012    -0.12680000
opls_145-7    C    0.24580025    0.24613026    0.70015004    -0.07080000
opls_700-8    C    0.26666013    0.26666993    0.73464010    0.09370000
opls_145-9    C    0.32063007    0.32035016    0.73858988    -0.07080000
opls_145-10    C    0.35286990    0.35261994    0.70889988    -0.10520000
opls_145-11    C    0.33187987    0.33192997    0.67468997    0.23640000
opls_142-12    C    0.14972009    0.85005990    0.11219004    0.01520000
opls_181-13    C    0.79779012    0.20272995    0.00541003    -0.16270000
opls_700-14    C    0.52652018    0.52647008    0.56003006    0.01120000
opls_145-15    C    0.56008985    0.55999020    0.58884003    -0.07710000
opls_700-16    C    0.61354027    0.61335022    0.58227007    -0.04210000
opls_166-17    C    0.63250014    0.63223003    0.54691989    0.28790000
opls_145-18    C    0.59715025    0.59694004    0.51827005    -0.16980000
opls_700-19    C    0.54446986    0.54438000    0.52550999    0.04520000
opls_145-20    C    0.72197027    0.72162991    0.67044012    -0.12680000
opls_145-21    C    0.75419975    0.75386974    0.70015004    -0.07080000
opls_700-22    C    0.73333987    0.73333007    0.73464010    0.09370000
opls_145-23    C    0.67936993    0.67964984    0.73858988    -0.07080000
opls_145-24    C    0.64713010    0.64738006    0.70889988    -0.10520000
opls_145-25    C    0.66812013    0.66807003    0.67468997    0.23640000
opls_142-26    C    0.85027991    0.14994010    0.11219004    0.01520000
opls_181-27    C    0.20220988    0.79727005    0.00541003    -0.16270000
opls_700-28    C    0.02647008    0.97347982    0.06003006    0.01120000
opls_145-29    C    0.05999020    0.93991015    0.08884003    -0.07710000
opls_700-30    C    0.11335022    0.88645973    0.08227007    -0.04210000
opls_166-31    C    0.13223003    0.86749986    0.04691989    0.28790000
opls_145-32    C    0.09694004    0.90284975    0.01827005    -0.16980000
opls_700-33    C    0.04438000    0.95553014    0.02550999    0.04520000
opls_145-34    C    0.22162991    0.77802973    0.17044012    -0.12680000
opls_145-35    C    0.25386974    0.74580025    0.20015004    -0.07080000
opls_700-36    C    0.23333007    0.76666013    0.23464010    0.09370000
opls_145-37    C    0.17964984    0.82063007    0.23858988    -0.07080000
opls_145-38    C    0.14738006    0.85286990    0.20889988    -0.10520000
opls_145-39    C    0.16807003    0.83187987    0.17468997    0.23640000
opls_142-40    C    0.64994010    0.64972009    0.61219004    0.01520000
opls_181-41    C    0.29727005    0.29779012    0.50541003    -0.16270000
opls_700-42    C    0.97352992    0.02652018    0.06003006    0.01120000
opls_145-43    C    0.94000980    0.06008985    0.08884003    -0.07710000
opls_700-44    C    0.88664978    0.11354027    0.08227007    -0.04210000
opls_166-45    C    0.86776997    0.13250014    0.04691989    0.28790000
opls_145-46    C    0.90305996    0.09715025    0.01827005    -0.16980000
opls_700-47    C    0.95562000    0.04446986    0.02550999    0.04520000
opls_145-48    C    0.77837009    0.22197027    0.17044012    -0.12680000
opls_145-49    C    0.74613026    0.25419975    0.20015004    -0.07080000
opls_700-50    C    0.76666993    0.23333987    0.23464010    0.09370000
opls_145-51    C    0.82035016    0.17936993    0.23858988    -0.07080000
opls_145-52    C    0.85261994    0.14713010    0.20889988    -0.10520000
opls_145-53    C    0.83192997    0.16812013    0.17468997    0.23640000
opls_142-54    C    0.35005990    0.35027991    0.61219004    0.01520000
opls_181-55    C    0.70272995    0.70220988    0.50541003    -0.16270000
opls_700-56    C    0.02652018    0.02647008    0.93996994    0.01120000
opls_145-57    C    0.06008985    0.05999020    0.91115997    -0.07710000
opls_700-58    C    0.11354027    0.11335022    0.91772993    -0.04210000
opls_166-59    C    0.13250014    0.13223003    0.95308011    0.28790000
opls_145-60    C    0.09715025    0.09694004    0.98172995    -0.16980000
opls_700-61    C    0.04446986    0.04438000    0.97449001    0.04520000
opls_145-62    C    0.22197027    0.22162991    0.82955988    -0.12680000
opls_145-63    C    0.25419975    0.25386974    0.79984996    -0.07080000
opls_700-64    C    0.23333987    0.23333007    0.76535990    0.09370000
opls_145-65    C    0.17936993    0.17964984    0.76141012    -0.07080000
opls_145-66    C    0.14713010    0.14738006    0.79110012    -0.10520000
opls_145-67    C    0.16812013    0.16807003    0.82531003    0.23640000
opls_142-68    C    0.35027991    0.64994010    0.38780996    0.01520000
opls_181-69    C    0.70220988    0.29727005    0.49458997    -0.16270000
opls_700-70    C    0.97347982    0.97352992    0.93996994    0.01120000
opls_145-71    C    0.93991015    0.94000980    0.91115997    -0.07710000
opls_700-72    C    0.88645973    0.88664978    0.91772993    -0.04210000
opls_166-73    C    0.86749986    0.86776997    0.95308011    0.28790000
opls_145-74    C    0.90284975    0.90305996    0.98172995    -0.16980000
opls_700-75    C    0.95553014    0.95562000    0.97449001    0.04520000
opls_145-76    C    0.77802973    0.77837009    0.82955988    -0.12680000
opls_145-77    C    0.74580025    0.74613026    0.79984996    -0.07080000
opls_700-78    C    0.76666013    0.76666993    0.76535990    0.09370000
opls_145-79    C    0.82063007    0.82035016    0.76141012    -0.07080000
opls_145-80    C    0.85286990    0.85261994    0.79110012    -0.10520000
opls_145-81    C    0.83187987    0.83192997    0.82531003    0.23640000
opls_142-82    C    0.64972009    0.35005990    0.38780996    0.01520000
opls_181-83    C    0.29779012    0.70272995    0.49458997    -0.16270000
opls_700-84    C    0.47352992    0.52652018    0.43996994    0.01120000
opls_145-85    C    0.44000980    0.56008985    0.41115997    -0.07710000
opls_700-86    C    0.38664978    0.61354027    0.41772993    -0.04210000
opls_166-87    C    0.36776997    0.63250014    0.45308011    0.28790000
opls_145-88    C    0.40305996    0.59715025    0.48172995    -0.16980000
opls_700-89    C    0.45562000    0.54446986    0.47449001    0.04520000
opls_145-90    C    0.27837009    0.72197027    0.32955988    -0.12680000
opls_145-91    C    0.24613026    0.75419975    0.29984996    -0.07080000
opls_700-92    C    0.26666993    0.73333987    0.26535990    0.09370000
opls_145-93    C    0.32035016    0.67936993    0.26141012    -0.07080000
opls_145-94    C    0.35261994    0.64713010    0.29110012    -0.10520000
opls_145-95    C    0.33192997    0.66812013    0.32531003    0.23640000
opls_142-96    C    0.85005990    0.85027991    0.88780996    0.01520000
opls_181-97    C    0.20272995    0.20220988    0.99458997    -0.16270000
opls_700-98    C    0.52647008    0.47347982    0.43996994    0.01120000
opls_145-99    C    0.55999020    0.43991015    0.41115997    -0.07710000
opls_700-100    C    0.61335022    0.38645973    0.41772993    -0.04210000
opls_166-101    C    0.63223003    0.36749986    0.45308011    0.28800000
opls_145-102    C    0.59694004    0.40284975    0.48172995    -0.16980000
opls_700-103    C    0.54438000    0.45553014    0.47449001    0.04520000
opls_145-104    C    0.72162991    0.27802973    0.32955988    -0.12680000
opls_145-105    C    0.75386974    0.24580025    0.29984996    -0.07080000
opls_700-106    C    0.73333007    0.26666013    0.26535990    0.09370000
opls_145-107    C    0.67964984    0.32063007    0.26141012    -0.07080000
opls_145-108    C    0.64738006    0.35286990    0.29110012    -0.10520000
opls_145-109    C    0.66807003    0.33187987    0.32531003    0.23640000
opls_142-110    C    0.14994010    0.14972009    0.88780996    0.01520000
opls_181-111    C    0.79727005    0.79779012    0.99458997    -0.16270000
opls_701-112    C    0.50000000    0.50000000    0.50000000    -0.00690000
opls_701-113    C    0.00000000    0.00000000    0.00000000    -0.00690000
opls_750-114    N    0.13393019    0.86600991    0.14483002    -0.26810000
opls_750-115    N    0.86606981    0.13399009    0.14483002    -0.26810000
opls_750-116    N    0.63399009    0.63393019    0.64483002    -0.26810000
opls_750-117    N    0.36600991    0.36606981    0.64483002    -0.26810000
opls_750-118    N    0.36606981    0.63399009    0.35516998    -0.26810000
opls_750-119    N    0.63393019    0.36600991    0.35516998    -0.26810000
opls_750-120    N    0.86600991    0.86606981    0.85516998    -0.26810000
opls_750-121    N    0.13399009    0.13393019    0.85516998    -0.26800000
opls_179-122    O    0.81421990    0.18622012    0.04148012    -0.14820000
opls_179-123    O    0.18578010    0.81377988    0.04148012    -0.14820000
opls_179-124    O    0.31377988    0.31421990    0.54148012    -0.14820000
opls_179-125    O    0.68622012    0.68578010    0.54148012    -0.14820000
opls_179-126    O    0.68578010    0.31377988    0.45851988    -0.14820000
opls_179-127    O    0.31421990    0.68622012    0.45851988    -0.14820000
opls_179-128    O    0.18622012    0.18578010    0.95851988    -0.14820000
opls_179-129    O    0.81377988    0.81421990    0.95851988    -0.14820000
opls_185-130    H    0.84823994    0.19343027    0.98835991    0.07100000
opls_185-131    H    0.78013015    0.26208027    0.00319987    0.07100000
opls_185-132    H    0.75187006    0.16591025    0.99578998    0.07100000
opls_144-133    H    0.19264989    0.80694984    0.10617004    0.03050000
opls_146-134    H    0.45532974    0.45539019    0.61719006    0.05170000
opls_146-135    H    0.38807983    0.38834014    0.48975989    0.05170000
opls_146-136    H    0.26062027    0.26120024    0.64261003    0.05170000
opls_146-137    H    0.20211022    0.20269019    0.69642013    0.05170000
opls_146-138    H    0.33834994    0.33781027    0.76632995    0.05170000
opls_146-139    H    0.39656973    0.39609977    0.71251002    0.05170000
opls_185-140    H    0.15176006    0.80656973    0.98835991    0.07100000
opls_185-141    H    0.21986985    0.73791973    0.00319987    0.07100000
opls_185-142    H    0.24812994    0.83408975    0.99578998    0.07100000
opls_144-143    H    0.80735011    0.19305016    0.10617004    0.03050000
opls_146-144    H    0.54467026    0.54460981    0.61719006    0.05170000
opls_146-145    H    0.61192017    0.61165986    0.48975989    0.05170000
opls_146-146    H    0.73937973    0.73879976    0.64261003    0.05170000
opls_146-147    H    0.79788978    0.79730981    0.69642013    0.05170000
opls_146-148    H    0.66165006    0.66218973    0.76632995    0.05170000
opls_146-149    H    0.60343027    0.60390023    0.71251002    0.05170000
opls_185-150    H    0.30656973    0.34823994    0.48835991    0.07100000
opls_185-151    H    0.23791973    0.28013015    0.50319987    0.07100000
opls_185-152    H    0.33408975    0.25187006    0.49578998    0.07100000
opls_144-153    H    0.69305016    0.69264989    0.60617004    0.03050000
opls_146-154    H    0.04460981    0.95532974    0.11719006    0.05170000
opls_146-155    H    0.11165986    0.88807983    0.98975989    0.05170000
opls_146-156    H    0.23879976    0.76062027    0.14261003    0.05170000
opls_146-157    H    0.29730981    0.70211022    0.19642013    0.05170000
opls_146-158    H    0.16218973    0.83834994    0.26632995    0.05170000
opls_146-159    H    0.10390023    0.89656973    0.21251002    0.05170000
opls_185-160    H    0.69343027    0.65176006    0.48835991    0.07100000
opls_185-161    H    0.76208027    0.71986985    0.50319987    0.07100000
opls_185-162    H    0.66591025    0.74812994    0.49578998    0.07100000
opls_144-163    H    0.30694984    0.30735011    0.60617004    0.03050000
opls_146-164    H    0.95539019    0.04467026    0.11719006    0.05170000
opls_146-165    H    0.88834014    0.11192017    0.98975989    0.05170000
opls_146-166    H    0.76120024    0.23937973    0.14261003    0.05170000
opls_146-167    H    0.70269019    0.29788978    0.19642013    0.05170000
opls_146-168    H    0.83781027    0.16165006    0.26632995    0.05170000
opls_146-169    H    0.89609977    0.10343027    0.21251002    0.05170000
opls_185-170    H    0.65176006    0.30656973    0.51164009    0.07100000
opls_185-171    H    0.71986985    0.23791973    0.49680013    0.07100000
opls_185-172    H    0.74812994    0.33408975    0.50421002    0.07100000
opls_144-173    H    0.30735011    0.69305016    0.39382996    0.03050000
opls_146-174    H    0.04467026    0.04460981    0.88280994    0.05170000
opls_146-175    H    0.11192017    0.11165986    0.01024011    0.05170000
opls_146-176    H    0.23937973    0.23879976    0.85738997    0.05170000
opls_146-177    H    0.29788978    0.29730981    0.80357987    0.05170000
opls_146-178    H    0.16165006    0.16218973    0.73367005    0.05170000
opls_146-179    H    0.10343027    0.10390023    0.78748998    0.05170000
opls_185-180    H    0.34823994    0.69343027    0.51164009    0.07100000
opls_185-181    H    0.28013015    0.76208027    0.49680013    0.07100000
opls_185-182    H    0.25187006    0.66591025    0.50421002    0.07100000
opls_144-183    H    0.69264989    0.30694984    0.39382996    0.03050000
opls_146-184    H    0.95532974    0.95539019    0.88280994    0.05170000
opls_146-185    H    0.88807983    0.88834014    0.01024011    0.05170000
opls_146-186    H    0.76062027    0.76120024    0.85738997    0.05170000
opls_146-187    H    0.70211022    0.70269019    0.80357987    0.05170000
opls_146-188    H    0.83834994    0.83781027    0.73367005    0.05170000
opls_146-189    H    0.89656973    0.89609977    0.78748998    0.05170000
opls_185-190    H    0.19343027    0.15176006    0.01164009    0.07100000
opls_185-191    H    0.26208027    0.21986985    0.99680013    0.07100000
opls_185-192    H    0.16591025    0.24812994    0.00421002    0.07100000
opls_144-193    H    0.80694984    0.80735011    0.89382996    0.03050000
opls_146-194    H    0.45539019    0.54467026    0.38280994    0.05170000
opls_146-195    H    0.38834014    0.61192017    0.51024011    0.05170000
opls_146-196    H    0.26120024    0.73937973    0.35738997    0.05170000
opls_146-197    H    0.20269019    0.79788978    0.30357987    0.05170000
opls_146-198    H    0.33781027    0.66165006    0.23367005    0.05170000
opls_146-199    H    0.39609977    0.60343027    0.28748998    0.05170000
opls_185-200    H    0.80656973    0.84823994    0.01164009    0.07100000
opls_185-201    H    0.73791973    0.78013015    0.99680013    0.07100000
opls_185-202    H    0.83408975    0.75187006    0.00421002    0.07100000
opls_144-203    H    0.19305016    0.19264989    0.89382996    0.03050000
opls_146-204    H    0.54460981    0.45532974    0.38280994    0.05170000
opls_146-205    H    0.61165986    0.38807983    0.51024011    0.05170000
opls_146-206    H    0.73879976    0.26062027    0.35738997    0.05170000
opls_146-207    H    0.79730981    0.20211022    0.30357987    0.05170000
opls_146-208    H    0.66218973    0.33834994    0.23367005    0.05170000
opls_146-209    H    0.60390023    0.39656973    0.28748998    0.05170000
