#======================================================================
# Crystal Data Generated By AuToFF
#----------------------------------------------------------------------

data_AuToFF_phase_1

_cell_length_a                         42.3348
_cell_length_b                         42.3348
_cell_length_c                         3.8828
_cell_angle_alpha                      90.00
_cell_angle_beta                       90.00
_cell_angle_gamma                      120.00
_symmetry_space_group_name_H-M_alt     'P 1'
_symmetry_space_group_IT_number        1

loop_
_space_group_symop_operation_xyz
   'x, y, z'

loop_
   _atom_site_label
   _atom_site_type_symbol
   _atom_site_fract_x
   _atom_site_fract_y
   _atom_site_fract_z
   _atom_site_charge
opls_520-0    N    0.32021999    0.68798006    0.50000000    -0.28530000
opls_750-1    N    0.44666990    0.84881001    0.50000000    -0.16190000
opls_520-2    N    0.31202004    0.63223996    0.50000000    -0.28530000
opls_750-3    N    0.15119012    0.59786008    0.50000000    -0.16190000
opls_520-4    N    0.36775997    0.67977997    0.50000000    -0.28530000
opls_750-5    N    0.40213998    0.55332991    0.50000000    -0.16190000
opls_520-6    N    0.67978001    0.31201994    0.50000000    -0.28530000
opls_750-7    N    0.55333010    0.15118999    0.50000000    -0.16190000
opls_520-8    N    0.68797996    0.36776004    0.50000000    -0.28530000
opls_750-9    N    0.84880988    0.40213992    0.50000000    -0.16190000
opls_520-10    N    0.63224003    0.32022003    0.50000000    -0.28530000
opls_750-11    N    0.59786002    0.44667009    0.50000000    -0.16190000
opls_531-12    C    0.35480987    0.70134994    0.50000000    0.39330000
opls_522-13    C    0.37824998    0.73921017    0.50000000    -0.01380000
opls_523-14    C    0.36495990    0.76173997    0.50000000    -0.17600000
opls_145-15    C    0.38706008    0.79737998    0.50000000    -0.17680000
opls_145-16    C    0.42289996    0.81125009    0.50000000    0.24120000
opls_145-17    C    0.43624010    0.78887004    0.50000000    -0.17710000
opls_523-18    C    0.41416993    0.75323003    0.50000000    -0.17600000
opls_142-19    C    0.43487994    0.87004995    0.50000000    0.11170000
opls_145-20    C    0.45453993    0.90703000    0.50000000    0.00900000
opls_145-21    C    0.49063996    0.92577996    0.50000000    -0.17600000
opls_145-22    C    0.50825000    0.96178001    0.50000000    -0.17530000
opls_145-23    C    0.49047001    0.98046996    0.50000000    0.04080000
opls_145-24    C    0.45403990    0.96092001    0.50000000    -0.17530000
opls_145-25    C    0.43663014    0.92496006    0.50000000    -0.17690000
opls_531-26    C    0.29865002    0.65345999    0.50000000    0.39330000
opls_522-27    C    0.26079007    0.63904000    0.50000000    -0.01380000
opls_523-28    C    0.23825998    0.60321998    0.50000000    -0.17600000
opls_145-29    C    0.20261997    0.58968017    0.50000000    -0.17680000
opls_145-30    C    0.18874992    0.61165000    0.50000000    0.24120000
opls_145-31    C    0.21113004    0.64736992    0.50000000    -0.17710000
opls_523-32    C    0.24677007    0.66094000    0.50000000    -0.17600000
opls_142-33    C    0.12994992    0.56483006    0.50000000    0.11170000
opls_145-34    C    0.09297000    0.54751015    0.50000000    0.00900000
opls_145-35    C    0.07422000    0.56486006    0.50000000    -0.17600000
opls_145-36    C    0.03822014    0.54647013    0.50000000    -0.17530000
opls_145-37    C    0.01952996    0.51000013    0.50000000    0.04080000
opls_145-38    C    0.03908005    0.49311990    0.50000000    -0.17530000
opls_145-39    C    0.07503997    0.51166994    0.50000000    -0.17690000
opls_531-40    C    0.34654011    0.64519007    0.50000000    0.39330000
opls_522-41    C    0.36096008    0.62175010    0.50000000    -0.01380000
opls_523-42    C    0.39678012    0.63504006    0.50000000    -0.17600000
opls_145-43    C    0.41032009    0.61294013    0.50000000    -0.17680000
opls_145-44    C    0.38834989    0.57709992    0.50000000    0.24120000
opls_145-45    C    0.35263009    0.56376004    0.50000000    -0.17710000
opls_523-46    C    0.33906000    0.58582997    0.50000000    -0.17600000
opls_142-47    C    0.43516991    0.56511999    0.50000000    0.11170000
opls_145-48    C    0.45248998    0.54546012    0.50000000    0.00900000
opls_145-49    C    0.43514004    0.50935998    0.50000000    -0.17600000
opls_145-50    C    0.45353000    0.49175013    0.50000000    -0.17530000
opls_145-51    C    0.49000003    0.50952990    0.50000000    0.04080000
opls_145-52    C    0.50688005    0.54596008    0.50000000    -0.17530000
opls_145-53    C    0.48832989    0.56337000    0.50000000    -0.17690000
opls_531-54    C    0.64519013    0.29865006    0.50000000    0.39320000
opls_522-55    C    0.62175015    0.26079010    0.50000000    -0.01380000
opls_523-56    C    0.63504010    0.23826003    0.50000000    -0.17600000
opls_145-57    C    0.61293992    0.20262002    0.50000000    -0.17680000
opls_145-58    C    0.57710004    0.18874991    0.50000000    0.24120000
opls_145-59    C    0.56375990    0.21112996    0.50000000    -0.17710000
opls_523-60    C    0.58583007    0.24676997    0.50000000    -0.17600000
opls_142-61    C    0.56512006    0.12995005    0.50000000    0.11170000
opls_145-62    C    0.54546007    0.09297000    0.50000000    0.00900000
opls_145-63    C    0.50936004    0.07422004    0.50000000    -0.17600000
opls_145-64    C    0.49175000    0.03821999    0.50000000    -0.17530000
opls_145-65    C    0.50952999    0.01953004    0.50000000    0.04080000
opls_145-66    C    0.54596010    0.03907999    0.50000000    -0.17530000
opls_145-67    C    0.56336986    0.07503994    0.50000000    -0.17690000
opls_531-68    C    0.70134998    0.34654001    0.50000000    0.39330000
opls_522-69    C    0.73920993    0.36096000    0.50000000    -0.01380000
opls_523-70    C    0.76174002    0.39678002    0.50000000    -0.17600000
opls_145-71    C    0.79738016    0.41032010    0.50000000    -0.17700000
opls_145-72    C    0.81125008    0.38835000    0.50000000    0.24120000
opls_145-73    C    0.78886996    0.35263008    0.50000000    -0.17710000
opls_523-74    C    0.75322993    0.33906000    0.50000000    -0.17600000
opls_142-75    C    0.87005008    0.43516994    0.50000000    0.11170000
opls_145-76    C    0.90703014    0.45249013    0.50000000    0.00900000
opls_145-77    C    0.92578000    0.43513994    0.50000000    -0.17600000
opls_145-78    C    0.96178000    0.45353014    0.50000000    -0.17530000
opls_145-79    C    0.98047018    0.49000014    0.50000000    0.04080000
opls_145-80    C    0.96091995    0.50688010    0.50000000    -0.17540000
opls_145-81    C    0.92496003    0.48833006    0.50000000    -0.17690000
opls_531-82    C    0.65345989    0.35480993    0.50000000    0.39330000
opls_522-83    C    0.63903992    0.37824990    0.50000000    -0.01380000
opls_523-84    C    0.60321988    0.36495994    0.50000000    -0.17600000
opls_145-85    C    0.58968005    0.38706015    0.50000000    -0.17690000
opls_145-86    C    0.61165011    0.42290008    0.50000000    0.24120000
opls_145-87    C    0.64736991    0.43623996    0.50000000    -0.17710000
opls_523-88    C    0.66094000    0.41417003    0.50000000    -0.17600000
opls_142-89    C    0.56483009    0.43488001    0.50000000    0.11170000
opls_145-90    C    0.54751016    0.45454015    0.50000000    0.00900000
opls_145-91    C    0.56485996    0.49064002    0.50000000    -0.17600000
opls_145-92    C    0.54647014    0.50825014    0.50000000    -0.17530000
opls_145-93    C    0.50999997    0.49047010    0.50000000    0.04080000
opls_145-94    C    0.49311995    0.45403992    0.50000000    -0.17530000
opls_145-95    C    0.51167011    0.43663000    0.50000000    -0.17690000
opls_526-96    H    0.33589993    0.75069996    0.50000000    0.13730000
opls_146-97    H    0.37601994    0.81540004    0.50000000    0.13740000
opls_146-98    H    0.46527991    0.79971994    0.50000000    0.12080000
opls_526-99    H    0.42524000    0.73523014    0.50000000    0.10270000
opls_146-100    H    0.50563000    0.91143008    0.50000000    0.10270000
opls_146-101    H    0.53758993    0.97677005    0.50000000    0.10270000
opls_146-102    H    0.43830993    0.97451000    0.50000000    0.12080000
opls_146-103    H    0.40730000    0.90982001    0.50000000    0.13740000
opls_144-104    H    0.40593005    0.85971010    0.50000000    0.11260000
opls_526-105    H    0.24929988    0.58519991    0.50000000    0.13740000
opls_146-106    H    0.18460013    0.56062009    0.50000000    0.13740000
opls_146-107    H    0.20027998    0.66555992    0.50000000    0.12080000
opls_526-108    H    0.26477015    0.69001018    0.50000000    0.10270000
opls_146-109    H    0.08856989    0.59419999    0.50000000    0.10270000
opls_146-110    H    0.02323010    0.56082002    0.50000000    0.10270000
opls_146-111    H    0.02548999    0.46380016    0.50000000    0.12080000
opls_146-112    H    0.09017998    0.49748016    0.50000000    0.13740000
opls_144-113    H    0.14028997    0.54622002    0.50000000    0.11260000
opls_526-114    H    0.41479996    0.66410014    0.50000000    0.13740000
opls_146-115    H    0.43938006    0.62398014    0.50000000    0.13740000
opls_146-116    H    0.33444011    0.53472014    0.50000000    0.12080000
opls_526-117    H    0.30998998    0.57475996    0.50000000    0.10270000
opls_146-118    H    0.40579987    0.49436994    0.50000000    0.10270000
opls_146-119    H    0.43917997    0.46240993    0.50000000    0.10270000
opls_146-120    H    0.53619999    0.56169011    0.50000000    0.12080000
opls_146-121    H    0.50252016    0.59270011    0.50000000    0.13740000
opls_144-122    H    0.45378012    0.59407015    0.50000000    0.11260000
opls_526-123    H    0.66410007    0.24930004    0.50000000    0.13740000
opls_146-124    H    0.62398006    0.18459996    0.50000000    0.13740000
opls_146-125    H    0.53472009    0.20028006    0.50000000    0.12080000
opls_526-126    H    0.57476013    0.26477013    0.50000000    0.10270000
opls_146-127    H    0.49437000    0.08856992    0.50000000    0.10270000
opls_146-128    H    0.46241007    0.02322995    0.50000000    0.10270000
opls_146-129    H    0.56169007    0.02549000    0.50000000    0.12080000
opls_146-130    H    0.59270000    0.09017999    0.50000000    0.13740000
opls_144-131    H    0.59406995    0.14028990    0.50000000    0.11260000
opls_526-132    H    0.75070012    0.41480009    0.50000000    0.13740000
opls_146-133    H    0.81539987    0.43937991    0.50000000    0.13740000
opls_146-134    H    0.79972002    0.33444008    0.50000000    0.12080000
opls_526-135    H    0.73522998    0.30999010    0.50000000    0.10270000
opls_146-136    H    0.91143011    0.40580001    0.50000000    0.10270000
opls_146-137    H    0.97676990    0.43917998    0.50000000    0.10270000
opls_146-138    H    0.97451015    0.53620011    0.50000000    0.12080000
opls_146-139    H    0.90982015    0.50252011    0.50000000    0.13740000
opls_144-140    H    0.85971003    0.45377998    0.50000000    0.11260000
opls_526-141    H    0.58520018    0.33590013    0.50000000    0.13740000
opls_146-142    H    0.56062007    0.37602014    0.50000000    0.13740000
opls_146-143    H    0.66556003    0.46528013    0.50000000    0.12080000
opls_526-144    H    0.69001002    0.42524004    0.50000000    0.10270000
opls_146-145    H    0.59420013    0.50563006    0.50000000    0.10270000
opls_146-146    H    0.56082003    0.53759007    0.50000000    0.10270000
opls_146-147    H    0.46380001    0.43830989    0.50000000    0.12080000
opls_146-148    H    0.49747984    0.40729989    0.50000000    0.13740000
opls_144-149    H    0.54622002    0.40593012    0.50000000    0.11260000
