#======================================================================
# Crystal Data Generated By AuToFF
#----------------------------------------------------------------------

data_AuToFF_phase_1

_cell_length_a                         42.6000
_cell_length_b                         36.7000
_cell_length_c                         4.4000
_cell_angle_alpha                      90.00
_cell_angle_beta                       90.50
_cell_angle_gamma                      90.00
_symmetry_space_group_name_H-M_alt     'P 1'
_symmetry_space_group_IT_number        1

loop_
_space_group_symop_operation_xyz
   'x, y, z'

loop_
   _atom_site_label
   _atom_site_type_symbol
   _atom_site_fract_x
   _atom_site_fract_y
   _atom_site_fract_z
   _atom_site_charge
opls_750-0    N    0.35310013    0.34660000    0.17539996    -0.25130000
opls_520-1    N    0.29169999    0.25170000    0.63279945    -0.24270000
opls_750-2    N    0.85310013    0.84660000    0.17539996    -0.25130000
opls_520-3    N    0.79169999    0.75170000    0.63279945    -0.24280000
opls_750-4    N    0.64690011    0.34660000    0.82460004    -0.25130000
opls_520-5    N    0.70830001    0.25170000    0.36720055    -0.24270000
opls_750-6    N    0.14690011    0.84660000    0.82460004    -0.25120000
opls_520-7    N    0.20830001    0.75170000    0.36720055    -0.24280000
opls_750-8    N    0.64690011    0.65340000    0.82460004    -0.25120000
opls_520-9    N    0.70830001    0.74830000    0.36720055    -0.24280000
opls_750-10    N    0.14690011    0.15340000    0.82460004    -0.25120000
opls_520-11    N    0.20830001    0.24830000    0.36720055    -0.24280000
opls_750-12    N    0.35310013    0.65340000    0.17539996    -0.25130000
opls_520-13    N    0.29169999    0.74830000    0.63279945    -0.24280000
opls_750-14    N    0.85310013    0.15340000    0.17539996    -0.25130000
opls_520-15    N    0.79169999    0.24830000    0.63279945    -0.24280000
opls_700-16    C    0.43709995    0.46700000    0.27129912    0.04400000
opls_700-17    C    0.46870008    0.46660000    0.38030106    0.02980000
opls_145-18    C    0.48460003    0.43400000    0.44300121    -0.06640000
opls_700-19    C    0.41679991    0.43460000    0.25120061    0.08840000
opls_145-20    C    0.42379998    0.40580000    0.05049968    -0.07020000
opls_145-21    C    0.40310000    0.37620000    0.02760107    -0.08380000
opls_145-22    C    0.37530007    0.37550000    0.20450108    0.24650000
opls_145-23    C    0.36830012    0.40420000    0.40299966    -0.09850000
opls_145-24    C    0.38869996    0.43360000    0.42600055    -0.07030000
opls_142-25    C    0.34830013    0.32410000    0.40039956    0.01790000
opls_700-26    C    0.32029996    0.30040000    0.40099958    0.01560000
opls_523-27    C    0.29329999    0.30940000    0.22889975    -0.07020000
opls_521-28    C    0.31899994    0.27070000    0.60150051    0.01580000
opls_522-29    C    0.26550000    0.28940000    0.26510115    -0.11920000
opls_521-30    C    0.26479995    0.26040000    0.47390013    0.19550000
opls_700-31    C    0.93709995    0.96700000    0.27129912    0.04400000
opls_700-32    C    0.96870008    0.96660000    0.38030106    0.02980000
opls_145-33    C    0.98460003    0.93400000    0.44300121    -0.06640000
opls_700-34    C    0.91679991    0.93460000    0.25120061    0.08840000
opls_145-35    C    0.92379998    0.90580000    0.05049968    -0.07020000
opls_145-36    C    0.90310000    0.87620000    0.02760107    -0.08380000
opls_145-37    C    0.87530007    0.87550000    0.20450108    0.24650000
opls_145-38    C    0.86830012    0.90420000    0.40299966    -0.09850000
opls_145-39    C    0.88869996    0.93360000    0.42600055    -0.07030000
opls_142-40    C    0.84830013    0.82410000    0.40039956    0.01780000
opls_700-41    C    0.82029996    0.80040000    0.40099958    0.01560000
opls_523-42    C    0.79329999    0.80940000    0.22889975    -0.07020000
opls_521-43    C    0.81899994    0.77070000    0.60150051    0.01580000
opls_522-44    C    0.76550000    0.78940000    0.26510115    -0.11920000
opls_521-45    C    0.76479995    0.76040000    0.47390013    0.19550000
opls_700-46    C    0.56290005    0.46700000    0.72870088    0.04400000
opls_700-47    C    0.53130015    0.46660000    0.61970122    0.02980000
opls_145-48    C    0.51539997    0.43400000    0.55700107    -0.06640000
opls_700-49    C    0.58320009    0.43460000    0.74879939    0.08840000
opls_145-50    C    0.57620002    0.40580000    0.94950032    -0.07170000
opls_145-51    C    0.59690000    0.37620000    0.97240121    -0.08380000
opls_145-52    C    0.62470017    0.37550000    0.79550119    0.24690000
opls_145-53    C    0.63170011    0.40420000    0.59700034    -0.09850000
opls_145-54    C    0.61130004    0.43360000    0.57399945    -0.07030000
opls_142-55    C    0.65170011    0.32410000    0.59960044    0.01780000
opls_700-56    C    0.67970004    0.30040000    0.59900042    0.01560000
opls_523-57    C    0.70670001    0.30940000    0.77110025    -0.07020000
opls_521-58    C    0.68100006    0.27070000    0.39849949    0.01580000
opls_522-59    C    0.73450000    0.28940000    0.73490112    -0.11920000
opls_521-60    C    0.73520005    0.26040000    0.52609987    0.19570000
opls_700-61    C    0.06290005    0.96700000    0.72870088    0.04400000
opls_700-62    C    0.03130015    0.96660000    0.61970122    0.02980000
opls_145-63    C    0.01539997    0.93400000    0.55700107    -0.06640000
opls_700-64    C    0.08320009    0.93460000    0.74879939    0.08850000
opls_145-65    C    0.07620002    0.90580000    0.94950032    -0.07170000
opls_145-66    C    0.09690000    0.87620000    0.97240121    -0.08380000
opls_145-67    C    0.12470017    0.87550000    0.79550119    0.24680000
opls_145-68    C    0.13170011    0.90420000    0.59700034    -0.09840000
opls_145-69    C    0.11130004    0.93360000    0.57399945    -0.07030000
opls_142-70    C    0.15170011    0.82410000    0.59960044    0.01780000
opls_700-71    C    0.17970004    0.80040000    0.59900042    0.01560000
opls_523-72    C    0.20670001    0.80940000    0.77110025    -0.07020000
opls_521-73    C    0.18100006    0.77070000    0.39849949    0.01580000
opls_522-74    C    0.23450000    0.78940000    0.73490112    -0.11920000
opls_521-75    C    0.23520005    0.76040000    0.52609987    0.19550000
opls_700-76    C    0.56290005    0.53300000    0.72870088    0.04400000
opls_700-77    C    0.53130015    0.53340000    0.61970122    0.02980000
opls_145-78    C    0.51539997    0.56600000    0.55700107    -0.06640000
opls_700-79    C    0.58320009    0.56540000    0.74879939    0.08840000
opls_145-80    C    0.57620002    0.59420000    0.94950032    -0.07170000
opls_145-81    C    0.59690000    0.62380000    0.97240121    -0.08380000
opls_145-82    C    0.62470017    0.62450000    0.79550119    0.24690000
opls_145-83    C    0.63170011    0.59580000    0.59700034    -0.09840000
opls_145-84    C    0.61130004    0.56640000    0.57399945    -0.07030000
opls_142-85    C    0.65170011    0.67590000    0.59960044    0.01780000
opls_700-86    C    0.67970004    0.69960000    0.59900042    0.01560000
opls_523-87    C    0.70670001    0.69060000    0.77110025    -0.07020000
opls_521-88    C    0.68100006    0.72930000    0.39849949    0.01580000
opls_522-89    C    0.73450000    0.71060000    0.73490112    -0.11900000
opls_521-90    C    0.73520005    0.73960000    0.52609987    0.19550000
opls_700-91    C    0.06290005    0.03300000    0.72870088    0.04400000
opls_700-92    C    0.03130015    0.03340000    0.61970122    0.02980000
opls_145-93    C    0.01539997    0.06600000    0.55700107    -0.06630000
opls_700-94    C    0.08320009    0.06540000    0.74879939    0.08840000
opls_145-95    C    0.07620002    0.09420000    0.94950032    -0.07170000
opls_145-96    C    0.09690000    0.12380000    0.97240121    -0.08380000
opls_145-97    C    0.12470017    0.12450000    0.79550119    0.24680000
opls_145-98    C    0.13170011    0.09580000    0.59700034    -0.09850000
opls_145-99    C    0.11130004    0.06640000    0.57399945    -0.07020000
opls_142-100    C    0.15170011    0.17590000    0.59960044    0.01780000
opls_700-101    C    0.17970004    0.19960000    0.59900042    0.01560000
opls_523-102    C    0.20670001    0.19060000    0.77110025    -0.07020000
opls_521-103    C    0.18100006    0.22930000    0.39849949    0.01580000
opls_522-104    C    0.23450000    0.21060000    0.73490112    -0.11920000
opls_521-105    C    0.23520005    0.23960000    0.52609987    0.19550000
opls_700-106    C    0.43709995    0.53300000    0.27129912    0.04400000
opls_700-107    C    0.46870008    0.53340000    0.38030106    0.02980000
opls_145-108    C    0.48460003    0.56600000    0.44300121    -0.06640000
opls_700-109    C    0.41679991    0.56540000    0.25120061    0.08850000
opls_145-110    C    0.42379998    0.59420000    0.05049968    -0.07010000
opls_145-111    C    0.40310000    0.62380000    0.02760107    -0.08380000
opls_145-112    C    0.37530007    0.62450000    0.20450108    0.24650000
opls_145-113    C    0.36830012    0.59580000    0.40299966    -0.09850000
opls_145-114    C    0.38869996    0.56640000    0.42600055    -0.07030000
opls_142-115    C    0.34830013    0.67590000    0.40039956    0.01780000
opls_700-116    C    0.32029996    0.69960000    0.40099958    0.01560000
opls_523-117    C    0.29329999    0.69060000    0.22889975    -0.07020000
opls_521-118    C    0.31899994    0.72930000    0.60150051    0.01580000
opls_522-119    C    0.26550000    0.71060000    0.26510115    -0.11920000
opls_521-120    C    0.26479995    0.73960000    0.47390013    0.19550000
opls_700-121    C    0.93709995    0.03300000    0.27129912    0.04400000
opls_700-122    C    0.96870008    0.03340000    0.38030106    0.02980000
opls_145-123    C    0.98460003    0.06600000    0.44300121    -0.06640000
opls_700-124    C    0.91679991    0.06540000    0.25120061    0.08840000
opls_145-125    C    0.92379998    0.09420000    0.05049968    -0.07010000
opls_145-126    C    0.90310000    0.12380000    0.02760107    -0.08380000
opls_145-127    C    0.87530007    0.12450000    0.20450108    0.24650000
opls_145-128    C    0.86830012    0.09580000    0.40299966    -0.09850000
opls_145-129    C    0.88869996    0.06640000    0.42600055    -0.07030000
opls_142-130    C    0.84830013    0.17590000    0.40039956    0.01780000
opls_700-131    C    0.82029996    0.19960000    0.40099958    0.01560000
opls_523-132    C    0.79329999    0.19060000    0.22889975    -0.07020000
opls_521-133    C    0.81899994    0.22930000    0.60150051    0.01580000
opls_522-134    C    0.76550000    0.21060000    0.26510115    -0.11920000
opls_521-135    C    0.76479995    0.23960000    0.47390013    0.19550000
opls_145-136    C    0.42210006    0.50000000    0.22089944    -0.10380000
opls_700-137    C    0.48439998    0.50000000    0.43800101    0.01050000
opls_145-138    C    0.92210006    0.00000000    0.22089944    -0.10360000
opls_700-139    C    0.98439998    0.00000000    0.43800101    0.01050000
opls_145-140    C    0.57790018    0.50000000    0.77910056    -0.10370000
opls_700-141    C    0.51560002    0.50000000    0.56200126    0.01050000
opls_145-142    C    0.07790018    0.00000000    0.77910056    -0.10370000
opls_700-143    C    0.01560002    0.00000000    0.56200126    0.01050000
opls_146-144    H    0.47246998    0.40674005    0.40132914    0.05370000
opls_146-145    H    0.44608007    0.40675995    0.90913967    0.05370000
opls_146-146    H    0.40853993    0.35268011    0.86721078    0.05380000
opls_146-147    H    0.34598995    0.40328992    0.54405966    0.05370000
opls_146-148    H    0.38308010    0.45718011    0.58522034    0.05370000
opls_144-149    H    0.36578007    0.32268992    0.59767991    0.03170000
opls_526-150    H    0.29404012    0.33295014    0.06012960    0.05370000
opls_524-151    H    0.34074007    0.26248011    0.73793987    0.03170000
opls_525-152    H    0.24371011    0.29671008    0.12580032    0.05370000
opls_146-153    H    0.97246998    0.90674005    0.40132914    0.05370000
opls_146-154    H    0.94608007    0.90675995    0.90913967    0.05370000
opls_146-155    H    0.90853993    0.85268011    0.86721078    0.05370000
opls_146-156    H    0.84598995    0.90328992    0.54405966    0.05370000
opls_146-157    H    0.88308010    0.95718011    0.58522034    0.05370000
opls_144-158    H    0.86578007    0.82268992    0.59767991    0.03180000
opls_526-159    H    0.79404012    0.83295014    0.06012960    0.05370000
opls_524-160    H    0.84074007    0.76248011    0.73793987    0.03170000
opls_525-161    H    0.74371011    0.79671008    0.12580032    0.05370000
opls_146-162    H    0.52753002    0.40674005    0.59867086    0.05370000
opls_146-163    H    0.55392017    0.40675995    0.09086033    0.05370000
opls_146-164    H    0.59146007    0.35268011    0.13279149    0.05370000
opls_146-165    H    0.65401005    0.40328992    0.45594034    0.05370000
opls_146-166    H    0.61692013    0.45718011    0.41477966    0.05370000
opls_144-167    H    0.63421993    0.32268992    0.40232009    0.03170000
opls_526-168    H    0.70596012    0.33295014    0.93987040    0.05370000
opls_524-169    H    0.65925993    0.26248011    0.26206013    0.03170000
opls_525-170    H    0.75629012    0.29671008    0.87419968    0.05370000
opls_146-171    H    0.02753002    0.90674005    0.59867086    0.05370000
opls_146-172    H    0.05392017    0.90675995    0.09086033    0.05380000
opls_146-173    H    0.09146007    0.85268011    0.13279149    0.05370000
opls_146-174    H    0.15401005    0.90328992    0.45594034    0.05370000
opls_146-175    H    0.11692013    0.95718011    0.41477966    0.05370000
opls_144-176    H    0.13421993    0.82268992    0.40232009    0.03170000
opls_526-177    H    0.20596012    0.83295014    0.93987040    0.05370000
opls_524-178    H    0.15925993    0.76248011    0.26206013    0.03170000
opls_525-179    H    0.25629012    0.79671008    0.87419968    0.05370000
opls_146-180    H    0.52753002    0.59325995    0.59867086    0.05380000
opls_146-181    H    0.55392017    0.59324005    0.09086033    0.05370000
opls_146-182    H    0.59146007    0.64731989    0.13279149    0.05370000
opls_146-183    H    0.65401005    0.59671008    0.45594034    0.05370000
opls_146-184    H    0.61692013    0.54281989    0.41477966    0.05370000
opls_144-185    H    0.63421993    0.67731008    0.40232009    0.03170000
opls_526-186    H    0.70596012    0.66704986    0.93987040    0.05370000
opls_524-187    H    0.65925993    0.73751989    0.26206013    0.03170000
opls_525-188    H    0.75629012    0.70328992    0.87419968    0.05370000
opls_146-189    H    0.02753002    0.09325995    0.59867086    0.05370000
opls_146-190    H    0.05392017    0.09324005    0.09086033    0.05370000
opls_146-191    H    0.09146007    0.14731989    0.13279149    0.05370000
opls_146-192    H    0.15401005    0.09671008    0.45594034    0.05380000
opls_146-193    H    0.11692013    0.04281989    0.41477966    0.05370000
opls_144-194    H    0.13421993    0.17731008    0.40232009    0.03170000
opls_526-195    H    0.20596012    0.16704986    0.93987040    0.05370000
opls_524-196    H    0.15925993    0.23751989    0.26206013    0.03170000
opls_525-197    H    0.25629012    0.20328992    0.87419968    0.05370000
opls_146-198    H    0.47246998    0.59325995    0.40132914    0.05370000
opls_146-199    H    0.44608007    0.59324005    0.90913967    0.05380000
opls_146-200    H    0.40853993    0.64731989    0.86721078    0.05370000
opls_146-201    H    0.34598995    0.59671008    0.54405966    0.05370000
opls_146-202    H    0.38308010    0.54281989    0.58522034    0.05370000
opls_144-203    H    0.36578007    0.67731008    0.59767991    0.03170000
opls_526-204    H    0.29404012    0.66704986    0.06012960    0.05370000
opls_524-205    H    0.34074007    0.73751989    0.73793987    0.03170000
opls_525-206    H    0.24371011    0.70328992    0.12580032    0.05380000
opls_146-207    H    0.97246998    0.09325995    0.40132914    0.05370000
opls_146-208    H    0.94608007    0.09324005    0.90913967    0.05370000
opls_146-209    H    0.90853993    0.14731989    0.86721078    0.05370000
opls_146-210    H    0.84598995    0.09671008    0.54405966    0.05370000
opls_146-211    H    0.88308010    0.04281989    0.58522034    0.05370000
opls_144-212    H    0.86578007    0.17731008    0.59767991    0.03180000
opls_526-213    H    0.79404012    0.16704986    0.06012960    0.05370000
opls_524-214    H    0.84074007    0.23751989    0.73793987    0.03170000
opls_525-215    H    0.74371011    0.20328992    0.12580032    0.05370000
opls_146-216    H    0.39675005    0.50048011    0.13573024    0.05370000
opls_146-217    H    0.89675005    0.00048011    0.13573024    0.05370000
opls_146-218    H    0.60324995    0.50048011    0.86426976    0.05370000
opls_146-219    H    0.10324995    0.00048011    0.86426976    0.05370000
