#======================================================================
# Crystal Data Generated By AuToFF
#----------------------------------------------------------------------

data_AuToFF_phase_1

_cell_length_a                         31.9982
_cell_length_b                         31.5291
_cell_length_c                         4.2840
_cell_angle_alpha                      90.40
_cell_angle_beta                       89.92
_cell_angle_gamma                      89.92
_symmetry_space_group_name_H-M_alt     'P 1'
_symmetry_space_group_IT_number        1

loop_
_space_group_symop_operation_xyz
   'x, y, z'

loop_
   _atom_site_label
   _atom_site_type_symbol
   _atom_site_fract_x
   _atom_site_fract_y
   _atom_site_fract_z
   _atom_site_charge
opls_547-0    H    0.15383993    0.28196996    0.01823109    0.24510000
opls_547-1    H    0.14427010    0.11250988    0.04110983    0.24510000
opls_547-2    H    0.19834995    0.05418012    0.07047100    0.24410000
opls_547-3    H    0.42210013    0.09479006    0.07091919    0.23760000
opls_547-4    H    0.43176000    0.26399990    0.05466060    0.24510000
opls_547-5    H    0.37757002    0.32229990    0.04918894    0.24410000
opls_545-6    H    0.26136988    0.16834990    0.04156969    0.29210000
opls_545-7    H    0.31483011    0.20790984    0.02860017    0.29210000
opls_146-8    H    0.13546008    0.14962006    0.50351900    0.08820000
opls_146-9    H    0.06201988    0.13830002    0.50019958    0.11760000
opls_146-10    H    0.44411998    0.22636002    0.50019958    0.11930000
opls_146-11    H    0.51825014    0.23278009    0.48725107    0.11100000
opls_146-12    H    0.24943996    0.35022016    0.32822972    0.04070000
opls_146-13    H    0.32792997    0.03306006    0.41585101    0.09360000
opls_146-14    H    0.33278004    0.95902009    0.37377010    0.11950000
opls_547-15    H    0.21389007    0.33094996    0.89555054    0.23750000
opls_547-16    H    0.36260013    0.04510009    0.95610065    0.24390000
opls_146-17    H    0.12093010    0.24336015    0.75966003    0.04110000
opls_146-18    H    0.04729000    0.23819005    0.81432063    0.12620000
opls_146-19    H    0.45096000    0.13195012    0.75553060    0.09360000
opls_146-20    H    0.52503999    0.13187997    0.80446043    0.09250000
opls_146-21    H    0.34476011    0.33911006    0.60062000    0.06890000
opls_146-22    H    0.35264009    0.41371002    0.59755969    0.11760000
opls_146-23    H    0.23336999    0.02977999    0.67379881    0.04200000
opls_146-24    H    0.23229028    0.95521007    0.68868949    0.06890000
opls_146-25    H    0.25161000    0.42481002    0.26894948    0.10790000
opls_146-26    H    0.34430017    0.54305987    0.28013091    0.24400000
opls_146-27    H    0.35013993    0.61713001    0.36395893    0.23750000
opls_146-28    H    0.34350006    0.74028000    0.44985049    0.07190000
opls_146-29    H    0.41562014    0.75756988    0.44897978    0.08610000
opls_146-30    H    0.23021017    0.75451009    0.47405979    0.09740000
opls_146-31    H    0.23499012    0.63407992    0.44125083    0.12070000
opls_146-32    H    0.23052024    0.82941991    0.46436066    0.11300000
opls_146-33    H    0.16149019    0.62175990    0.43069967    0.06020000
opls_146-34    H    0.23946020    0.56221016    0.65983020    0.11760000
opls_146-35    H    0.24843995    0.63619006    0.70410071    0.07590000
opls_146-36    H    0.36695997    0.64289997    0.75233958    0.13520000
opls_146-37    H    0.43954010    0.65599994    0.80033101    0.10620000
opls_146-38    H    0.33179021    0.75317986    0.79710964    0.12650000
opls_146-39    H    0.21871999    0.73621995    0.77425891    0.11680000
opls_146-40    H    0.33551027    0.82803007    0.83012869    0.06400000
opls_146-41    H    0.14505012    0.72685006    0.80094027    0.11440000
opls_547-42    H    0.93614018    0.61434006    0.01823109    0.24510000
opls_547-43    H    0.94584010    0.78379007    0.04110983    0.24510000
opls_547-44    H    0.89179999    0.84215992    0.07047100    0.24410000
opls_547-45    H    0.66802003    0.80171989    0.07091919    0.23750000
opls_547-46    H    0.65823008    0.63250998    0.05466060    0.24510000
opls_547-47    H    0.71237999    0.57417000    0.04918894    0.24410000
opls_545-48    H    0.82869002    0.72804005    0.04156969    0.29210000
opls_545-49    H    0.77520997    0.68850981    0.02860017    0.29210000
opls_146-50    H    0.95462002    0.74667002    0.50351900    0.11760000
opls_146-51    H    0.02397025    0.75668997    0.50019958    0.09220000
opls_146-52    H    0.64591011    0.67015998    0.50019958    0.09360000
opls_146-53    H    0.57177009    0.66380010    0.48725107    0.11970000
opls_146-54    H    0.84048994    0.54615997    0.32822972    0.04510000
opls_146-55    H    0.76224008    0.86336999    0.41585101    0.04100000
opls_146-56    H    0.75476026    0.93780982    0.37377010    0.07730000
opls_547-57    H    0.87604996    0.56539995    0.89555054    0.24490000
opls_547-58    H    0.72756021    0.85136998    0.95610065    0.24490000
opls_146-59    H    0.96908002    0.65291997    0.75966003    0.04990000
opls_146-60    H    0.03862004    0.65679009    0.81432063    0.06850000
opls_146-61    H    0.63914009    0.76457994    0.75553060    0.07570000
opls_146-62    H    0.56505023    0.76470009    0.80446043    0.08300000
opls_146-63    H    0.74518013    0.55732994    0.60062000    0.10420000
opls_146-64    H    0.73725002    0.48275012    0.59755969    0.10210000
opls_146-65    H    0.85680011    0.86658013    0.67379881    0.05050000
opls_146-66    H    0.85526002    0.94154998    0.68868949    0.11780000
opls_146-67    H    0.74548002    0.35341996    0.28013091    0.24410000
opls_146-68    H    0.73959002    0.27934998    0.36395893    0.08660000
opls_146-69    H    0.74614012    0.15619014    0.44985049    0.10380000
opls_146-70    H    0.67400997    0.13896013    0.44897978    0.10220000
opls_146-71    H    0.85942002    0.14187007    0.47405979    0.05980000
opls_146-72    H    0.85473000    0.26230999    0.44125083    0.09880000
opls_146-73    H    0.85905017    0.06696989    0.46436066    0.07730000
opls_146-74    H    0.92823996    0.27457015    0.43069967    0.10800000
opls_146-75    H    0.85031013    0.33417996    0.65983020    0.11120000
opls_146-76    H    0.84127013    0.26021005    0.70410071    0.06340000
opls_146-77    H    0.72275012    0.25359004    0.75233958    0.10410000
opls_146-78    H    0.65016015    0.24054017    0.80033101    0.06940000
opls_146-79    H    0.75784012    0.14328018    0.79710964    0.04950000
opls_146-80    H    0.87092006    0.16016014    0.77425891    0.07910000
opls_146-81    H    0.75407002    0.06843996    0.83012869    0.06750000
opls_146-82    H    0.94459990    0.16947016    0.80094027    0.11320000
opls_146-83    H    0.83953004    0.47682986    0.31055886    0.03880000
opls_716-84    C    0.18572010    0.27281988    0.00520088    -0.19900000
opls_507-85    C    0.20310014    0.23204996    0.04169108    0.18380000
opls_700-86    C    0.18015999    0.19546992    0.07264892    -0.06450000
opls_543-87    C    0.19802014    0.15578007    0.05794967    0.17920000
opls_716-88    C    0.17702993    0.11743991    0.05333003    -0.19880000
opls_716-89    C    0.20543987    0.08670008    0.05769056    -0.19870000
opls_543-90    C    0.24491989    0.10488997    0.04413045    0.17910000
opls_716-91    C    0.39024998    0.10381990    0.04849097    -0.19880000
opls_507-92    C    0.32161995    0.10158990    0.01341071    0.18410000
opls_700-93    C    0.39573003    0.18119993    0.08326077    -0.06310000
opls_543-94    C    0.37801996    0.22081999    0.06020930    0.17910000
opls_716-95    C    0.39896005    0.25911010    0.05430111    -0.19880000
opls_716-96    C    0.37047002    0.28974992    0.04122888    -0.19880000
opls_543-97    C    0.33106002    0.27141993    0.01945895    0.17910000
opls_700-98    C    0.28242001    0.08346993    0.02447075    -0.06240000
opls_507-99    C    0.37270015    0.14467002    0.06623886    0.18400000
opls_700-100    C    0.13520018    0.19617002    0.11248888    0.07490000
opls_145-101    C    0.11671997    0.16783006    0.33153979    -0.13220000
opls_145-102    C    0.07492009    0.16185994    0.33608940    -0.16360000
opls_145-103    C    0.04926998    0.18676994    0.14076925    0.21710000
opls_145-104    C    0.44073992    0.17949985    0.11299076    0.09050000
opls_145-105    C    0.46130005    0.20693000    0.32673108    -0.11640000
opls_145-106    C    0.50343002    0.21003003    0.32642995    -0.16940000
opls_145-107    C    0.52696016    0.18311989    0.13206922    0.21420000
opls_145-108    C    0.27068014    0.36352993    0.14666110    -0.19280000
opls_145-109    C    0.27238990    0.40590987    0.11984902    -0.20020000
opls_700-110    C    0.28122007    0.03805012    0.03028089    0.09090000
opls_145-111    C    0.30892999    0.01650987    0.23537953    -0.13100000
opls_145-112    C    0.31007024    0.97467003    0.21779971    -0.19990000
opls_145-113    C    0.28355012    0.95193985    0.01384022    0.21420000
opls_507-114    C    0.25436999    0.27476009    0.99206095    0.18400000
opls_716-115    C    0.21704015    0.29859995    0.95956946    -0.19960000
opls_716-116    C    0.35905995    0.07767990    0.00943068    -0.19900000
opls_700-117    C    0.29363993    0.29274996    0.99682065    -0.06310000
opls_145-118    C    0.10882991    0.22173998    0.94423993    -0.17130000
opls_145-119    C    0.06671018    0.21847012    0.96921023    -0.20050000
opls_145-120    C    0.46494000    0.15248994    0.93962030    -0.19380000
opls_145-121    C    0.50720010    0.15280999    0.96083933    -0.20020000
opls_145-122    C    0.29643997    0.33806998    0.97358942    0.08950000
opls_145-123    C    0.32543005    0.35740002    0.76696881    -0.12950000
opls_145-124    C    0.32971003    0.39967999    0.76029030    -0.19910000
opls_145-125    C    0.25452990    0.01469990    0.84754044    -0.19280000
opls_145-126    C    0.25297027    0.97253013    0.85072913    -0.19980000
opls_145-127    C    0.30235007    0.42456000    0.93782987    0.21610000
opls_261-128    C    0.10330001    0.67111000    0.12360962    0.23480000
opls_145-129    C    0.36368007    0.72296998    0.28338963    -0.19280000
opls_145-130    C    0.40498010    0.73226014    0.29133101    -0.17140000
opls_145-131    C    0.43326022    0.70822010    0.11522938    -0.00450000
opls_700-132    C    0.28174995    0.74741004    0.13582982    0.07470000
opls_145-133    C    0.25298014    0.77018008    0.31948066    -0.17140000
opls_145-134    C    0.21587021    0.65359007    0.28159920    -0.19280000
opls_145-135    C    0.25335020    0.81266002    0.31793067    -0.19310000
opls_145-136    C    0.17405011    0.64698999    0.28211042    -0.19280000
opls_145-137    C    0.28359005    0.83416989    0.14302888    -0.00200000
opls_700-138    C    0.29070994    0.54701000    0.98101959    -0.00210000
opls_145-139    C    0.26380995    0.57419998    0.82063031    -0.17150000
opls_145-140    C    0.32267020    0.56360992    0.17168975    -0.19290000
opls_145-141    C    0.26836011    0.61624994    0.85261059    -0.08420000
opls_145-142    C    0.32616022    0.60560989    0.21438926    -0.19300000
opls_700-143    C    0.29864004    0.63302990    0.06136946    0.09090000
opls_700-144    C    0.30750004    0.67673999    0.10303019    0.01090000
opls_145-145    C    0.34833023    0.69087995    0.10070053    0.04340000
opls_700-146    C    0.27347005    0.70431990    0.12385005    0.01090000
opls_145-147    C    0.37695999    0.66747012    0.92029907    -0.17010000
opls_145-148    C    0.41829004    0.67526012    0.94251953    -0.19250000
opls_145-149    C    0.23314994    0.68603992    0.11521071    0.09080000
opls_145-150    C    0.31081996    0.76927018    0.96534925    -0.19260000
opls_145-151    C    0.20661011    0.71155003    0.93183065    -0.13030000
opls_145-152    C    0.31235009    0.81169998    0.97569032    -0.19260000
opls_145-153    C    0.16488002    0.70599008    0.94275997    -0.16990000
opls_145-154    C    0.14769020    0.67366004    0.12692903    -0.00230000
opls_261-155    C    0.28471002    0.50272011    0.95390871    0.23040000
opls_261-156    C    0.47794019    0.70952989    0.10253064    0.25410000
opls_261-157    C    0.27885023    0.87848996    0.12417919    0.31180000
opls_716-158    C    0.90426994    0.62350006    0.00520088    -0.19880000
opls_507-159    C    0.88692009    0.66429011    0.04169108    0.18390000
opls_700-160    C    0.90989009    0.70084987    0.07264892    -0.06450000
opls_543-161    C    0.89206019    0.74054993    0.05794967    0.17930000
opls_716-162    C    0.91306998    0.77887997    0.05333003    -0.19880000
opls_716-163    C    0.88469022    0.80965004    0.05769056    -0.19880000
opls_543-164    C    0.84518999    0.79148999    0.04413045    0.17910000
opls_716-165    C    0.69986998    0.79266007    0.04849097    -0.19900000
opls_507-166    C    0.76849995    0.79483997    0.01341071    0.18390000
opls_700-167    C    0.69432016    0.71528990    0.08326077    -0.06240000
opls_543-168    C    0.71200993    0.67565992    0.06020930    0.17910000
opls_716-169    C    0.69105021    0.63736991    0.05430111    -0.19880000
opls_716-170    C    0.71950021    0.60671994    0.04122888    -0.19870000
opls_543-171    C    0.75893006    0.62501995    0.01945895    0.18040000
opls_700-172    C    0.80771011    0.81293008    0.02447075    -0.06240000
opls_507-173    C    0.71737998    0.75179005    0.06623886    0.18410000
opls_145-174    C    0.95485014    0.70011987    0.11248888    0.08950000
opls_145-175    C    0.97334009    0.72844000    0.33153979    -0.19890000
opls_145-176    C    0.01105008    0.73314986    0.33608940    -0.20060000
opls_145-177    C    0.03667995    0.70821983    0.14076925    0.21710000
opls_700-178    C    0.64931020    0.71701999    0.11299076    0.09180000
opls_145-179    C    0.62874021    0.68960996    0.32674042    -0.13170000
opls_145-180    C    0.58661000    0.68654012    0.32642995    -0.13840000
opls_145-181    C    0.56310013    0.71346982    0.13206922    0.21530000
opls_145-182    C    0.81924018    0.53286984    0.14666110    -0.19280000
opls_145-183    C    0.81749997    0.49048991    0.11984902    -0.16290000
opls_700-184    C    0.80895004    0.85834991    0.03026922    0.08980000
opls_145-185    C    0.78125008    0.87992005    0.23537953    -0.11320000
opls_145-186    C    0.77747019    0.92214010    0.21779971    -0.17290000
opls_145-187    C    0.80400023    0.94484988    0.01384022    0.21430000
opls_507-188    C    0.83561995    0.62161999    0.99206095    0.18400000
opls_716-189    C    0.87292998    0.59774990    0.95956946    -0.19940000
opls_716-190    C    0.73107017    0.81878009    0.00943068    -0.19930000
opls_700-191    C    0.79634004    0.60366018    0.99682065    -0.06330000
opls_145-192    C    0.98120021    0.67453006    0.94423993    -0.20180000
opls_145-193    C    0.01921013    0.67652994    0.96921023    -0.20720000
opls_145-194    C    0.62513024    0.74405004    0.93962030    -0.17140000
opls_145-195    C    0.58288018    0.74375987    0.96083933    -0.20060000
opls_700-196    C    0.79350006    0.55834004    0.97358942    0.08970000
opls_145-197    C    0.76449021    0.53903018    0.76696881    -0.13330000
opls_145-198    C    0.76017994    0.49675992    0.76029030    -0.17370000
opls_145-199    C    0.83565019    0.88168012    0.84754044    -0.19280000
opls_145-200    C    0.83456010    0.92424009    0.85072913    -0.20020000
opls_145-201    C    0.78753007    0.47186015    0.93782987    0.21860000
opls_261-202    C    0.98639013    0.22517994    0.12360962    0.19660000
opls_145-203    C    0.72597012    0.17351990    0.28338963    -0.19310000
opls_145-204    C    0.68466015    0.16425988    0.29134035    -0.08420000
opls_145-205    C    0.65640995    0.18831006    0.11522938    0.00070000
opls_145-206    C    0.80788006    0.14900990    0.13582982    0.07470000
opls_145-207    C    0.83662990    0.12622990    0.31948066    -0.17120000
opls_145-208    C    0.87383988    0.24277998    0.28159920    -0.19280000
opls_145-209    C    0.83623011    0.08375016    0.31793067    -0.19310000
opls_145-210    C    0.91566015    0.24934997    0.28211042    -0.19290000
opls_145-211    C    0.80598004    0.06224988    0.14302888    -0.00190000
opls_700-212    C    0.79907005    0.34941997    0.98101959    -0.00210000
opls_145-213    C    0.82594997    0.32220999    0.82063031    -0.19280000
opls_145-214    C    0.76709990    0.33284987    0.17168975    -0.19290000
opls_145-215    C    0.82137017    0.28016010    0.85261059    -0.15500000
opls_145-216    C    0.76357994    0.29084990    0.21438926    -0.19300000
opls_700-217    C    0.79108007    0.26341005    0.06136946    0.09880000
opls_700-218    C    0.78218989    0.21969987    0.10303019    -0.00460000
opls_700-219    C    0.74134991    0.20559985    0.10070053    0.07470000
opls_700-220    C    0.81620014    0.19209991    0.12385005    -0.00460000
opls_145-221    C    0.71274013    0.22902015    0.92029907    -0.13460000
opls_145-222    C    0.67139003    0.22127020    0.94251953    -0.19260000
opls_145-223    C    0.85652012    0.21035002    0.11521071    0.07730000
opls_145-224    C    0.77879999    0.12718019    0.96534925    -0.19280000
opls_145-225    C    0.88305019    0.18481010    0.93183065    -0.17100000
opls_145-226    C    0.77724000    0.08474990    0.97569032    -0.19250000
opls_145-227    C    0.92477991    0.19035007    0.94275997    -0.19280000
opls_145-228    C    0.94198990    0.22266006    0.12692903    -0.00320000
opls_261-229    C    0.80510994    0.39370992    0.95390871    0.23050000
opls_261-230    C    0.61173006    0.18704001    0.10253064    0.24120000
opls_261-231    C    0.81068014    0.01792985    0.12417919    0.30750000
opls_542-232    N    0.24460012    0.23454991    0.02417896    -0.24790000
opls_542-233    N    0.23875991    0.14650000    0.04564076    -0.28590000
opls_542-234    N    0.33121990    0.14201005    0.04682893    -0.26420000
opls_542-235    N    0.33729998    0.22987987    0.03569886    -0.28610000
opls_750-236    N    0.28627022    0.90920993    0.00408974    -0.17360000
opls_750-237    N    0.56962009    0.18659003    0.12447098    -0.30280000
opls_750-238    N    0.00699988    0.17995999    0.13442922    -0.33470000
opls_750-239    N    0.30687008    0.46716992    0.93522009    -0.26720000
opls_542-240    N    0.84541015    0.66182004    0.02417896    -0.24470000
opls_542-241    N    0.85132004    0.74986984    0.04564076    -0.28590000
opls_542-242    N    0.75887012    0.75442996    0.04684061    -0.26740000
opls_542-243    N    0.75272020    0.66656005    0.03569886    -0.28590000
opls_750-244    N    0.80131006    0.98758998    0.00408974    -0.17370000
opls_750-245    N    0.52044022    0.71002983    0.12447098    -0.34280000
opls_750-246    N    0.07988013    0.70465006    0.13442922    -0.23460000
opls_750-247    N    0.78298012    0.42924999    0.93522009    -0.26750000
