#======================================================================
# Crystal Data Generated By AuToFF
#----------------------------------------------------------------------

data_AuToFF_phase_1

_cell_length_a                         15.2693
_cell_length_b                         15.2879
_cell_length_c                         7.5658
_cell_angle_alpha                      104.79
_cell_angle_beta                       128.45
_cell_angle_gamma                      60.37
_symmetry_space_group_name_H-M_alt     'P 1'
_symmetry_space_group_IT_number        1

loop_
_space_group_symop_operation_xyz
   'x, y, z'

loop_
   _atom_site_label
   _atom_site_type_symbol
   _atom_site_fract_x
   _atom_site_fract_y
   _atom_site_fract_z
   _atom_site_charge
opls_700-0    C    0.36910995    0.05363032    0.99906049    -0.11590000
opls_280-1    C    0.45744056    0.07934964    0.02444082    0.35060000
opls_700-2    C    0.43105989    0.18628029    0.03384947    -0.11590000
opls_280-3    C    0.31686037    0.26706014    0.00835064    0.34670000
opls_700-4    C    0.22977962    0.23786992    0.97707932    -0.09930000
opls_280-5    C    0.25905007    0.13187015    0.98978049    0.40750000
opls_142-6    C    0.51195974    0.20900033    0.04350019    0.02920000
opls_142-7    C    0.38777970    0.95370028    0.98486965    0.02920000
opls_142-8    C    0.12247978    0.31594000    0.95547904    0.02920000
opls_141-9    C    0.55479017    0.42297021    0.07101008    0.58480000
opls_700-10    C    0.61414038    0.45823009    0.02335065    -0.02210000
opls_145-11    C    0.57983990    0.56220995    0.02094009    -0.04340000
opls_145-12    C    0.71125008    0.39047975    0.00346011    -0.04740000
opls_700-13    C    0.64508975    0.59788999    0.00850977    -0.02230000
opls_700-14    C    0.77644989    0.42478055    0.98745965    -0.02140000
opls_145-15    C    0.74456974    0.52848994    0.99507900    -0.03590000
opls_141-16    C    0.88370936    0.34492021    0.98203926    0.57940000
opls_141-17    C    0.62094999    0.70632025    0.03576066    0.55750000
opls_700-18    C    0.24719997    0.32652014    0.49414033    -0.11590000
opls_280-19    C    0.33293945    0.35259042    0.51305920    0.35750000
opls_700-20    C    0.29569990    0.45942004    0.48096010    -0.07620000
opls_280-21    C    0.19194973    0.54005045    0.48809022    0.22820000
opls_700-22    C    0.11782038    0.51046973    0.50159040    -0.07620000
opls_280-23    C    0.13760060    0.40488978    0.48628060    0.24680000
opls_142-24    C    0.36522962    0.48191031    0.45361949    0.02920000
opls_142-25    C    0.26833996    0.22575986    0.48902973    0.02920000
opls_142-26    C    0.02631966    0.58670027    0.52644934    0.02920000
opls_141-27    C    0.40131970    0.69716016    0.46859918    0.55800000
opls_700-28    C    0.48142988    0.72968988    0.47611019    -0.02120000
opls_145-29    C    0.44975963    0.83359000    0.48611979    -0.03590000
opls_145-30    C    0.59459007    0.66117970    0.50614068    -0.03590000
opls_700-31    C    0.52919986    0.86912023    0.52515942    -0.02170000
opls_700-32    C    0.67595989    0.69523977    0.54719983    -0.02280000
opls_145-33    C    0.64261959    0.79923024    0.55689965    -0.03590000
opls_141-34    C    0.79530991    0.61658011    0.58165025    0.58310000
opls_141-35    C    0.50322004    0.97830976    0.54804963    0.55900000
opls_144-36    H    0.59527023    0.14576028    0.04817066    0.03420000
opls_144-37    H    0.31556994    0.93820997    0.96174922    0.03420000
opls_144-38    H    0.10317990    0.39794040    0.95250985    0.03420000
opls_146-39    H    0.49843932    0.61846036    0.02909944    0.05800000
opls_146-40    H    0.73830990    0.30625973    0.00007956    0.05790000
opls_146-41    H    0.79937990    0.55710028    0.99040006    0.05800000
opls_144-42    H    0.44745055    0.41828972    0.45553067    0.03420000
opls_144-43    H    0.20023980    0.20730039    0.47391969    0.03420000
opls_144-44    H    0.00916000    0.66843039    0.52943039    0.03420000
opls_146-45    H    0.35850012    0.89030019    0.46238995    0.05800000
opls_146-46    H    0.62153941    0.57691039    0.49741931    0.05800000
opls_146-47    H    0.70863986    0.82671016    0.59092009    0.05800000
opls_750-48    N    0.49465042    0.30436974    0.04753078    -0.11230000
opls_750-49    N    0.48703974    0.87705051    0.99765038    -0.11270000
opls_750-50    N    0.56017003    0.32816995    0.01416037    -0.17060000
opls_750-51    N    0.50392022    0.77824994    0.97769043    -0.16990000
opls_750-52    N    0.03985974    0.29864030    0.93780947    -0.11340000
opls_750-53    N    0.94185009    0.37523039    0.94109014    -0.17020000
opls_750-54    N    0.33769983    0.57747997    0.42478920    -0.11290000
opls_750-55    N    0.36659986    0.14888039    0.50130939    -0.11260000
opls_750-56    N    0.40895036    0.60228979    0.41096062    -0.17030000
opls_750-57    N    0.38404986    0.05002998    0.48619935    -0.17170000
opls_750-58    N    0.95610038    0.56782982    0.54746053    -0.11270000
opls_750-59    N    0.86147002    0.64484035    0.56045963    -0.17060000
opls_272-60    O    0.50694970    0.47539034    0.17191015    -0.31600000
opls_272-61    O    0.92254994    0.25452983    0.01986007    -0.28430000
opls_272-62    O    0.70526058    0.73178963    0.12501079    -0.31050000
opls_281-63    O    0.29358981    0.35836010    0.01248957    -0.25430000
opls_281-64    O    0.55166984    0.01253027    0.03440979    -0.24550000
opls_281-65    O    0.19554025    0.10601990    0.00042997    -0.28190000
opls_272-66    O    0.33517011    0.75286015    0.53590031    -0.31170000
opls_272-67    O    0.83541985    0.52582003    0.62700916    -0.31680000
opls_272-68    O    0.58392997    0.00496037    0.62484066    -0.26590000
opls_281-69    O    0.16798987    0.63105985    0.48599960    -0.30190000
opls_281-70    O    0.43886978    0.28620989    0.56237928    -0.28790000
opls_281-71    O    0.06385948    0.38242011    0.46806933    -0.24550000
