#======================================================================
# Crystal Data Generated By AuToFF
#----------------------------------------------------------------------

data_AuToFF_phase_1

_cell_length_a                         43.5281
_cell_length_b                         43.5281
_cell_length_c                         6.6567
_cell_angle_alpha                      90.00
_cell_angle_beta                       90.00
_cell_angle_gamma                      120.00
_symmetry_space_group_name_H-M_alt     'P 1'
_symmetry_space_group_IT_number        1

loop_
_space_group_symop_operation_xyz
   'x, y, z'

loop_
   _atom_site_label
   _atom_site_type_symbol
   _atom_site_fract_x
   _atom_site_fract_y
   _atom_site_fract_z
   _atom_site_charge
opls_700-0    C    0.03516987    0.00542996    0.73554013    0.06920000
opls_145-1    C    0.00529997    0.97098002    0.73672991    -0.15320000
opls_700-2    C    0.07200012    0.01107001    0.71999039    0.06290000
opls_145-3    C    0.94319017    0.89776011    0.70878063    -0.12930000
opls_145-4    C    0.91458002    0.86377997    0.67622996    -0.19000000
opls_145-5    C    0.87986998    0.85827999    0.65159013    0.20140000
opls_145-6    C    0.90389998    0.92171993    0.70397945    -0.12630000
opls_522-7    C    0.36833998    0.12688997    0.25745940    -0.04740000
opls_523-8    C    0.40427989    0.15271999    0.26430964    -0.12810000
opls_700-9    C    0.42881003    0.15349009    0.12215062    0.05810000
opls_523-10    C    0.41608006    0.12605991    0.97842925    -0.12960000
opls_145-11    C    0.87519996    0.88807007    0.66864963    -0.17880000
opls_142-12    C    0.84571008    0.79461005    0.62203945    0.10260000
opls_521-13    C    0.90031006    0.25554005    0.10898043    0.10600000
opls_522-14    C    0.77482992    0.74006007    0.23794973    -0.19000000
opls_700-15    C    0.67287993    0.36847989    0.96278937    0.06920000
opls_145-16    C    0.63801003    0.33949996    0.96269022    -0.15400000
opls_700-17    C    0.67965996    0.40593992    0.96557003    0.06900000
opls_145-18    C    0.57031997    0.26869009    0.80805955    -0.12640000
opls_145-19    C    0.53552993    0.24033994    0.81085072    -0.17750000
opls_145-20    C    0.52293012    0.21707010    0.97696006    0.19400000
opls_145-21    C    0.58177008    0.24948006    0.12681960    -0.12640000
opls_522-22    C    0.79317011    0.70194002    0.39878018    -0.04720000
opls_523-23    C    0.81506986    0.72979995    0.52756020    -0.12140000
opls_700-24    C    0.81871994    0.76382995    0.50799045    0.05930000
opls_523-25    C    0.79708997    0.76783007    0.36482041    -0.12970000
opls_145-26    C    0.54663003    0.22178991    0.13465982    -0.18400000
opls_142-27    C    0.46591993    0.18278994    0.12390975    0.08150000
opls_521-28    C    0.93316993    0.22622004    0.24230024    0.10620000
opls_522-29    C    0.38044993    0.09959004    0.97420043    -0.19010000
opls_905-30    C    0.94665996    0.25317988    0.90400949    -0.28600000
opls_700-31    C    0.99456998    0.02973994    0.73554013    0.06920000
opls_145-32    C    0.02901990    0.03431995    0.73672991    -0.15320000
opls_700-33    C    0.98892994    0.06092989    0.71999039    0.06290000
opls_145-34    C    0.10223996    0.04543002    0.70878063    -0.12930000
opls_145-35    C    0.13621992    0.05080002    0.67622996    -0.19000000
opls_145-36    C    0.14172013    0.02159010    0.65159013    0.20130000
opls_145-37    C    0.07828012    0.98218001    0.70397945    -0.12630000
opls_522-38    C    0.87311007    0.24145012    0.25745940    -0.04740000
opls_523-39    C    0.84727995    0.25156009    0.26430964    -0.12810000
opls_700-40    C    0.84650986    0.27531990    0.12215062    0.05810000
opls_523-41    C    0.87394003    0.29001996    0.97842925    -0.12960000
opls_145-42    C    0.11192996    0.98713008    0.66864963    -0.17880000
opls_142-43    C    0.20538994    0.05110005    0.62203945    0.10260000
opls_521-44    C    0.74445989    0.64476990    0.10898043    0.10600000
opls_522-45    C    0.25994010    0.03477013    0.23794973    -0.19000000
opls_700-46    C    0.63152007    0.30440010    0.96278937    0.06920000
opls_145-47    C    0.66049986    0.29850989    0.96269022    -0.15390000
opls_700-48    C    0.59406007    0.27372001    0.96557003    0.06900000
opls_145-49    C    0.73130994    0.30163007    0.80805955    -0.12640000
opls_145-50    C    0.75966005    0.29518994    0.81085072    -0.17750000
opls_145-51    C    0.78292989    0.30585992    0.97696006    0.19400000
opls_145-52    C    0.75051992    0.33229000    0.12681960    -0.12640000
opls_522-53    C    0.29806002    0.09123010    0.39878018    -0.04720000
opls_523-54    C    0.27020001    0.08527012    0.52756020    -0.12150000
opls_700-55    C    0.23616997    0.05489006    0.50799045    0.05930000
opls_523-56    C    0.23216996    0.02926006    0.36482041    -0.12970000
opls_145-57    C    0.77821001    0.32483996    0.13465982    -0.18400000
opls_142-58    C    0.81720989    0.28312992    0.12390975    0.08150000
opls_521-59    C    0.77378007    0.70695005    0.24230024    0.10650000
opls_522-60    C    0.90041008    0.28085994    0.97420043    -0.19020000
opls_905-61    C    0.74681999    0.69348007    0.90400949    -0.28600000
opls_700-62    C    0.97026014    0.96483010    0.73554013    0.06920000
opls_145-63    C    0.96568013    0.99470003    0.73672991    -0.14500000
opls_700-64    C    0.93906995    0.92800010    0.71999039    0.06290000
opls_145-65    C    0.95456987    0.05680987    0.70878063    -0.12930000
opls_145-66    C    0.94920006    0.08542000    0.67622996    -0.19000000
opls_145-67    C    0.97840989    0.12012991    0.65159013    0.20130000
opls_145-68    C    0.01782013    0.09610006    0.70397945    -0.12640000
opls_522-69    C    0.75854995    0.63165991    0.25745940    -0.04740000
opls_523-70    C    0.74843993    0.59571991    0.26430964    -0.12810000
opls_700-71    C    0.72468010    0.57119001    0.12215062    0.05810000
opls_523-72    C    0.70998015    0.58392013    0.97842925    -0.12960000
opls_145-73    C    0.01286998    0.12480011    0.66864963    -0.17880000
opls_142-74    C    0.94889998    0.15428990    0.62203945    0.10260000
opls_521-75    C    0.35523005    0.09969005    0.10898043    0.10600000
opls_522-76    C    0.96523011    0.22517007    0.23794973    -0.19000000
opls_700-77    C    0.69560000    0.32712001    0.96278937    0.06920000
opls_145-78    C    0.70148998    0.36198989    0.96269022    -0.15400000
opls_700-79    C    0.72627997    0.32034006    0.96557003    0.06900000
opls_145-80    C    0.69837000    0.42968010    0.80805955    -0.12640000
opls_145-81    C    0.70481002    0.46447012    0.81085072    -0.17750000
opls_145-82    C    0.69413999    0.47706998    0.97696006    0.19400000
opls_145-83    C    0.66770999    0.41822994    0.12681960    -0.12640000
opls_522-84    C    0.90876987    0.20682988    0.39878018    -0.04720000
opls_523-85    C    0.91472989    0.18492993    0.52756020    -0.12150000
opls_700-86    C    0.94511009    0.18127998    0.50799045    0.05940000
opls_523-87    C    0.97073984    0.20290988    0.36482041    -0.12970000
opls_145-88    C    0.67515996    0.45337013    0.13465982    -0.18400000
opls_142-89    C    0.71687005    0.53407988    0.12390975    0.08150000
opls_521-90    C    0.29305000    0.06682992    0.24230024    0.10650000
opls_522-91    C    0.71913999    0.61955002    0.97420043    -0.19020000
opls_905-92    C    0.30652005    0.05334005    0.90400949    -0.28600000
opls_700-93    C    0.00543004    0.03516990    0.23554013    0.06920000
opls_145-94    C    0.97098010    0.00529997    0.23672991    -0.14500000
opls_700-95    C    0.01106985    0.07199990    0.21999039    0.06290000
opls_145-96    C    0.89776000    0.94319013    0.20878063    -0.12930000
opls_145-97    C    0.86378006    0.91458000    0.17622996    -0.19000000
opls_145-98    C    0.85827998    0.87987009    0.15159013    0.20130000
opls_145-99    C    0.92172007    0.90389994    0.20397945    -0.12640000
opls_522-100    C    0.12689003    0.36834009    0.75745940    -0.04740000
opls_523-101    C    0.15272001    0.40428009    0.76430964    -0.12810000
opls_700-102    C    0.15349009    0.42880999    0.62215062    0.05810000
opls_523-103    C    0.12606002    0.41607987    0.47842925    -0.12960000
opls_145-104    C    0.88806987    0.87519989    0.16864963    -0.17880000
opls_142-105    C    0.79461008    0.84571010    0.12203945    0.10260000
opls_521-106    C    0.25554000    0.90030995    0.60898043    0.10600000
opls_522-107    C    0.74006004    0.77482993    0.73794973    -0.19000000
opls_700-108    C    0.36847999    0.67287999    0.46278937    0.06920000
opls_145-109    C    0.33950009    0.63801011    0.46269022    -0.15400000
opls_700-110    C    0.40593991    0.67965994    0.46557003    0.06900000
opls_145-111    C    0.26868990    0.57031990    0.30805955    -0.12640000
opls_145-112    C    0.24033990    0.53552988    0.31085072    -0.17750000
opls_145-113    C    0.21707001    0.52293002    0.47696006    0.19400000
opls_145-114    C    0.24948005    0.58177006    0.62681960    -0.12640000
opls_522-115    C    0.70193999    0.79317012    0.89878018    -0.04720000
opls_523-116    C    0.72979996    0.81507007    0.02756020    -0.12150000
opls_700-117    C    0.76383011    0.81872002    0.00799045    0.05930000
opls_523-118    C    0.76782996    0.79709012    0.86482041    -0.12970000
opls_145-119    C    0.22178996    0.54663013    0.63465982    -0.18400000
opls_142-120    C    0.18279017    0.46592012    0.62390975    0.08150000
opls_521-121    C    0.22622008    0.93317008    0.74230024    0.10650000
opls_522-122    C    0.09958998    0.38044998    0.47420043    -0.19020000
opls_905-123    C    0.25318000    0.94665995    0.40400949    -0.28590000
opls_700-124    C    0.02973992    0.99457004    0.23554013    0.06920000
opls_145-125    C    0.03431995    0.02901998    0.23672991    -0.15320000
opls_700-126    C    0.06093011    0.98892999    0.21999039    0.06290000
opls_145-127    C    0.04543006    0.10223989    0.20878063    -0.12930000
opls_145-128    C    0.05080004    0.13622003    0.17622996    -0.19000000
opls_145-129    C    0.02159000    0.14172001    0.15159013    0.20130000
opls_145-130    C    0.98218005    0.07828007    0.20397945    -0.12640000
opls_522-131    C    0.24145002    0.87311003    0.75745940    -0.04740000
opls_523-132    C    0.25155990    0.84728001    0.76430964    -0.12810000
opls_700-133    C    0.27531994    0.84650991    0.62215062    0.05810000
opls_523-134    C    0.29002014    0.87394009    0.47842925    -0.12950000
opls_145-135    C    0.98712989    0.11192993    0.16864963    -0.17880000
opls_142-136    C    0.05110003    0.20538995    0.12203945    0.10260000
opls_521-137    C    0.64477001    0.74445995    0.60898043    0.10610000
opls_522-138    C    0.03476985    0.25993993    0.73794973    -0.19000000
opls_700-139    C    0.30440004    0.63152011    0.46278937    0.06920000
opls_145-140    C    0.29851006    0.66050004    0.46269022    -0.15400000
opls_700-141    C    0.27372004    0.59406008    0.46557003    0.06900000
opls_145-142    C    0.30162988    0.73130991    0.30805955    -0.12630000
opls_145-143    C    0.29518999    0.75966006    0.31085072    -0.17750000
opls_145-144    C    0.30586002    0.78292990    0.47696006    0.19400000
opls_145-145    C    0.33229003    0.75051994    0.62681960    -0.12640000
opls_522-146    C    0.09123008    0.29805998    0.89878018    -0.04720000
opls_523-147    C    0.08526992    0.27020005    0.02756020    -0.12140000
opls_700-148    C    0.05488998    0.23617005    0.00799045    0.05930000
opls_523-149    C    0.02925990    0.23216993    0.86482041    -0.12970000
opls_145-150    C    0.32484012    0.77821009    0.63465982    -0.18390000
opls_142-151    C    0.28312999    0.81721006    0.62390975    0.08150000
opls_521-152    C    0.70694990    0.77377996    0.74230024    0.10620000
opls_522-153    C    0.28085989    0.90040996    0.47420043    -0.19020000
opls_905-154    C    0.69348009    0.74682012    0.40400949    -0.28600000
opls_700-155    C    0.96483004    0.97026006    0.23554013    0.06920000
opls_145-156    C    0.99469995    0.96568005    0.23672991    -0.15320000
opls_700-157    C    0.92800005    0.93907011    0.21999039    0.06290000
opls_145-158    C    0.05680994    0.95456998    0.20878063    -0.12930000
opls_145-159    C    0.08541990    0.94919998    0.17622996    -0.19000000
opls_145-160    C    0.12013003    0.97840990    0.15159013    0.20130000
opls_145-161    C    0.09610011    0.01781999    0.20397945    -0.12640000
opls_522-162    C    0.63165995    0.75854988    0.75745940    -0.04740000
opls_523-163    C    0.59571986    0.74843991    0.76430964    -0.12810000
opls_700-164    C    0.57118997    0.72468010    0.62215062    0.05810000
opls_523-165    C    0.58392007    0.70998004    0.47842925    -0.12960000
opls_145-166    C    0.12479988    0.01286992    0.16864963    -0.17880000
opls_142-167    C    0.15428989    0.94889995    0.12203945    0.10260000
opls_521-168    C    0.09968998    0.35523010    0.60898043    0.10600000
opls_522-169    C    0.22517011    0.96523014    0.73794973    -0.18990000
opls_700-170    C    0.32711998    0.69559990    0.46278937    0.06920000
opls_145-171    C    0.36198998    0.70149011    0.46269022    -0.15390000
opls_700-172    C    0.32034006    0.72627999    0.46557003    0.06900000
opls_145-173    C    0.42967986    0.69836993    0.30805955    -0.12640000
opls_145-174    C    0.46447011    0.70481006    0.31085072    -0.17750000
opls_145-175    C    0.47706997    0.69414008    0.47696006    0.19410000
opls_145-176    C    0.41822992    0.66771000    0.62681960    -0.12640000
opls_522-177    C    0.20682992    0.90876990    0.89878018    -0.04710000
opls_523-178    C    0.18492989    0.91472988    0.02756020    -0.12150000
opls_700-179    C    0.18127991    0.94510994    0.00799045    0.05930000
opls_523-180    C    0.20290991    0.97073994    0.86482041    -0.12970000
opls_145-181    C    0.45337005    0.67516004    0.63465982    -0.18400000
opls_142-182    C    0.53407997    0.71687008    0.62390975    0.08150000
opls_521-183    C    0.06683002    0.29304995    0.74230024    0.10620000
opls_522-184    C    0.61955013    0.71914006    0.47420043    -0.19000000
opls_905-185    C    0.05333991    0.30651993    0.40400949    -0.28600000
opls_750-186    N    0.85127002    0.82617006    0.58222993    -0.27590000
opls_750-187    N    0.48740005    0.18857006    0.97525050    -0.29330000
opls_900-188    N    0.75491013    0.68120013    0.09197951    -0.07420000
opls_750-189    N    0.17382995    0.02509998    0.58222993    -0.27590000
opls_750-190    N    0.81143015    0.29883008    0.97525050    -0.29320000
opls_900-191    N    0.31879994    0.07370988    0.09197951    -0.07420000
opls_750-192    N    0.97490004    0.14872996    0.58222993    -0.27590000
opls_750-193    N    0.70117016    0.51260013    0.97525050    -0.29330000
opls_900-194    N    0.92628993    0.24508999    0.09197951    -0.07420000
opls_750-195    N    0.82617008    0.85127004    0.08222993    -0.27590000
opls_750-196    N    0.18857016    0.48740014    0.47525050    -0.29330000
opls_900-197    N    0.68119994    0.75491001    0.59197951    -0.07420000
opls_750-198    N    0.02509996    0.17382994    0.08222993    -0.27570000
opls_750-199    N    0.29882999    0.81142994    0.47525050    -0.29330000
opls_900-200    N    0.07371013    0.31880013    0.59197951    -0.07420000
opls_750-201    N    0.14872996    0.97490002    0.08222993    -0.27590000
opls_750-202    N    0.51260007    0.70116992    0.47525050    -0.29330000
opls_900-203    N    0.24509006    0.92629012    0.59197951    -0.07420000
opls_146-204    H    0.96934009    0.90035001    0.72212958    0.10700000
opls_146-205    H    0.91957994    0.84172007    0.66051046    0.10750000
opls_526-206    H    0.69106002    0.56577014    0.86867968    0.10920000
opls_146-207    H    0.84871000    0.88452995    0.65320955    0.10800000
opls_146-208    H    0.89847017    0.94352013    0.71405051    0.11010000
opls_144-209    H    0.86131014    0.78931008    0.73583007    0.04470000
opls_526-210    H    0.82659992    0.23993990    0.37855995    0.10760000
opls_525-211    H    0.92127012    0.29372004    0.86238977    0.11190000
opls_146-212    H    0.00944006    0.94833995    0.73529977    0.11320000
opls_140-213    H    0.95403004    0.23304004    0.87335016    0.11900000
opls_146-214    H    0.57934994    0.28684008    0.68050986    0.10760000
opls_146-215    H    0.51758999    0.23680008    0.68751934    0.10780000
opls_526-216    H    0.20677008    0.00489012    0.35107936    0.11160000
opls_146-217    H    0.53769001    0.20357997    0.26185948    0.10810000
opls_146-218    H    0.59969991    0.25272997    0.24982950    0.10760000
opls_144-219    H    0.47401996    0.20069004    0.25717998    0.04470000
opls_526-220    H    0.89488993    0.16950009    0.64126970    0.10780000
opls_525-221    H    0.98617005    0.24148991    0.13223970    0.11160000
opls_146-222    H    0.61571000    0.34429007    0.96325056    0.10720000
opls_140-223    H    0.93059995    0.25272997    0.77651990    0.12360000
opls_140-224    H    0.97118995    0.27926987    0.90578966    0.11870000
opls_146-225    H    0.09964996    0.06899007    0.72212958    0.10700000
opls_146-226    H    0.15827997    0.07785987    0.66051046    0.10750000
opls_526-227    H    0.43423006    0.12529008    0.86867968    0.10920000
opls_146-228    H    0.11547000    0.96417991    0.65320955    0.10800000
opls_146-229    H    0.05648012    0.95495012    0.71405051    0.11010000
opls_144-230    H    0.21068986    0.07199990    0.73583007    0.04470000
opls_526-231    H    0.76005995    0.58665991    0.37855995    0.10760000
opls_525-232    H    0.70628006    0.62754998    0.86238977    0.11190000
opls_146-233    H    0.05166001    0.06109993    0.73529977    0.11320000
opls_140-234    H    0.76696007    0.72099010    0.87335016    0.12200000
opls_146-235    H    0.71316011    0.29251012    0.68050986    0.10760000
opls_146-236    H    0.76319999    0.28078991    0.68751934    0.10780000
opls_526-237    H    0.99511001    0.20188007    0.35107936    0.11160000
opls_146-238    H    0.79641997    0.33411006    0.26185948    0.10810000
opls_146-239    H    0.74726993    0.34696990    0.24982950    0.10760000
opls_144-240    H    0.79931008    0.27333005    0.25717998    0.04470000
opls_526-241    H    0.83049993    0.72538998    0.64126970    0.10780000
opls_525-242    H    0.75851015    0.74468013    0.13223970    0.11160000
opls_146-243    H    0.65570998    0.27142006    0.96325056    0.10710000
opls_140-244    H    0.74727013    0.67787011    0.77651990    0.12360000
opls_140-245    H    0.72073008    0.69191998    0.90578966    0.11880000
opls_146-246    H    0.93100995    0.03065992    0.72212958    0.10710000
opls_146-247    H    0.92214009    0.08042006    0.66051046    0.10760000
opls_526-248    H    0.87471005    0.30894005    0.86867968    0.10920000
opls_146-249    H    0.03581986    0.15128988    0.65320955    0.10800000
opls_146-250    H    0.04505008    0.10153001    0.71405051    0.11010000
opls_144-251    H    0.92799999    0.13869002    0.73583007    0.04470000
opls_526-252    H    0.41334000    0.17339993    0.37855995    0.10770000
opls_525-253    H    0.37245006    0.07872998    0.86238977    0.11190000
opls_146-254    H    0.93890016    0.99056012    0.73529977    0.11320000
opls_140-255    H    0.27901002    0.04597012    0.87335016    0.12210000
opls_146-256    H    0.70749008    0.42065007    0.68050986    0.10760000
opls_146-257    H    0.71921002    0.48241001    0.68751934    0.10780000
opls_526-258    H    0.79812004    0.79323008    0.35107936    0.11160000
opls_146-259    H    0.66589002    0.46230997    0.26185948    0.10710000
opls_146-260    H    0.65303016    0.40030013    0.24982950    0.10760000
opls_144-261    H    0.72666997    0.52597991    0.25717998    0.04470000
opls_526-262    H    0.27460991    0.10510993    0.64126970    0.10780000
opls_525-263    H    0.25532003    0.01382995    0.13223970    0.11160000
opls_146-264    H    0.72858015    0.38429013    0.96325056    0.10710000
opls_140-265    H    0.32212992    0.06939992    0.77651990    0.12360000
opls_140-266    H    0.30807983    0.02880988    0.90578966    0.11870000
opls_146-267    H    0.90035002    0.96934008    0.22212958    0.10700000
opls_146-268    H    0.84172003    0.91957994    0.16051046    0.10760000
opls_526-269    H    0.56577000    0.69105995    0.36867968    0.10920000
opls_146-270    H    0.88452998    0.84871012    0.15320955    0.10800000
opls_146-271    H    0.94352007    0.89846999    0.21405051    0.11010000
opls_144-272    H    0.78930997    0.86130998    0.23583007    0.04470000
opls_526-273    H    0.23994007    0.82660007    0.87855995    0.10760000
opls_525-274    H    0.29372007    0.92127002    0.36238977    0.11190000
opls_146-275    H    0.94834004    0.00943988    0.23529977    0.11320000
opls_140-276    H    0.23304003    0.95403014    0.37335016    0.12200000
opls_146-277    H    0.28684002    0.57934993    0.18050986    0.10760000
opls_146-278    H    0.23680001    0.51758999    0.18751934    0.10780000
opls_526-279    H    0.00488997    0.20676992    0.85107936    0.11160000
opls_146-280    H    0.20358005    0.53769003    0.76185948    0.10810000
opls_146-281    H    0.25273016    0.59970013    0.74982950    0.10760000
opls_144-282    H    0.20069006    0.47402009    0.75717998    0.04470000
opls_526-283    H    0.16949999    0.89489007    0.14126970    0.10790000
opls_525-284    H    0.24149008    0.98617005    0.63223970    0.11160000
opls_146-285    H    0.34429015    0.61571013    0.46325056    0.10710000
opls_140-286    H    0.25273000    0.93060008    0.27651990    0.12360000
opls_140-287    H    0.27926995    0.97119012    0.40578966    0.11870000
opls_146-288    H    0.06899009    0.09964999    0.22212958    0.10700000
opls_146-289    H    0.07785987    0.15827993    0.16051046    0.10750000
opls_526-290    H    0.12529001    0.43423013    0.36867968    0.10920000
opls_146-291    H    0.96418006    0.11547005    0.15320955    0.10810000
opls_146-292    H    0.95495004    0.05647987    0.21405051    0.11010000
opls_144-293    H    0.07200006    0.21068992    0.23583007    0.04470000
opls_526-294    H    0.58666002    0.76006010    0.87855995    0.10760000
opls_525-295    H    0.62755007    0.70627996    0.36238977    0.11190000
opls_146-296    H    0.06110012    0.05166005    0.23529977    0.11320000
opls_140-297    H    0.72099000    0.76695996    0.37335016    0.11900000
opls_146-298    H    0.29250985    0.71315992    0.18050986    0.10760000
opls_146-299    H    0.28078991    0.76319992    0.18751934    0.10780000
opls_526-300    H    0.20187996    0.99510988    0.85107936    0.11160000
opls_146-301    H    0.33411004    0.79642003    0.76185948    0.10810000
opls_146-302    H    0.34696994    0.74727003    0.74982950    0.10760000
opls_144-303    H    0.27332992    0.79930996    0.75717998    0.04470000
opls_526-304    H    0.72538984    0.83049991    0.14126970    0.10780000
opls_525-305    H    0.74468014    0.75851009    0.63223970    0.11170000
opls_146-306    H    0.27141993    0.65570993    0.46325056    0.10710000
opls_140-307    H    0.67786998    0.74727003    0.27651990    0.12360000
opls_140-308    H    0.69192008    0.72073013    0.40578966    0.11870000
opls_146-309    H    0.03065989    0.93100993    0.22212958    0.10700000
opls_146-310    H    0.08042009    0.92214013    0.16051046    0.10750000
opls_526-311    H    0.30893998    0.87470992    0.36867968    0.10920000
opls_146-312    H    0.15129009    0.03582009    0.15320955    0.10810000
opls_146-313    H    0.10153000    0.04504988    0.21405051    0.11010000
opls_144-314    H    0.13868996    0.92800010    0.23583007    0.04470000
opls_526-315    H    0.17340004    0.41334009    0.87855995    0.10760000
opls_525-316    H    0.07873008    0.37245002    0.36238977    0.11190000
opls_146-317    H    0.99056007    0.93890007    0.23529977    0.11320000
opls_140-318    H    0.04596997    0.27900990    0.37335016    0.12200000
opls_146-319    H    0.42065000    0.70748988    0.18050986    0.10760000
opls_146-320    H    0.48241008    0.71921009    0.18751934    0.10790000
opls_526-321    H    0.79322994    0.79811993    0.85107936    0.11160000
opls_146-322    H    0.46230991    0.66588994    0.76185948    0.10810000
opls_146-323    H    0.40030003    0.65303010    0.74982950    0.10760000
opls_144-324    H    0.52598002    0.72666995    0.75717998    0.04470000
opls_526-325    H    0.10510994    0.27461002    0.14126970    0.10780000
opls_525-326    H    0.01383015    0.25532013    0.63223970    0.11170000
opls_146-327    H    0.38428992    0.72857994    0.46325056    0.10710000
opls_140-328    H    0.06940002    0.32212989    0.27651990    0.12360000
opls_140-329    H    0.02881010    0.30808002    0.40578966    0.11870000
opls_202-330    S    0.79122994    0.66020001    0.43720011    0.08010000
opls_202-331    S    0.33979983    0.13102988    0.43720011    0.08010000
opls_202-332    S    0.86897000    0.20877011    0.43720011    0.08010000
opls_202-333    S    0.66019989    0.79122989    0.93720011    0.08010000
opls_202-334    S    0.13102993    0.33979999    0.93720011    0.08010000
opls_202-335    S    0.20876995    0.86897012    0.93720011    0.08010000
