#======================================================================
# Crystal Data Generated By AuToFF
#----------------------------------------------------------------------

data_AuToFF_phase_1

_cell_length_a                         37.7236
_cell_length_b                         37.7236
_cell_length_c                         3.6234
_cell_angle_alpha                      90.00
_cell_angle_beta                       90.00
_cell_angle_gamma                      120.00
_symmetry_space_group_name_H-M_alt     'P 1'
_symmetry_space_group_IT_number        1

loop_
_space_group_symop_operation_xyz
   'x, y, z'

loop_
   _atom_site_label
   _atom_site_type_symbol
   _atom_site_fract_x
   _atom_site_fract_y
   _atom_site_fract_z
   _atom_site_charge
opls_700-0    C    0.28995997    0.64349977    0.53877022    0.06820000
opls_700-1    C    0.35649990    0.64646001    0.53877022    0.06840000
opls_700-2    C    0.35353998    0.71003991    0.53877022    0.06790000
opls_700-3    C    0.71003988    0.35649993    0.53877022    0.06840000
opls_700-4    C    0.64350010    0.35353999    0.53877022    0.06790000
opls_700-5    C    0.64646002    0.28996009    0.53877022    0.06800000
opls_145-6    C    0.31344999    0.62397979    0.53878953    -0.17500000
opls_145-7    C    0.37601992    0.68945993    0.53878953    -0.17500000
opls_145-8    C    0.31054001    0.68655998    0.53878953    -0.17500000
opls_145-9    C    0.68655993    0.37601991    0.53878953    -0.17500000
opls_145-10    C    0.62398008    0.31054007    0.53878953    -0.17500000
opls_145-11    C    0.68945985    0.31344981    0.53878953    -0.17490000
opls_700-12    C    0.24407992    0.61901003    0.53875918    0.06830000
opls_700-13    C    0.38098992    0.62506979    0.53875918    0.06820000
opls_700-14    C    0.37493000    0.75591988    0.53875918    0.06830000
opls_700-15    C    0.75592008    0.38098997    0.53875918    0.06840000
opls_700-16    C    0.61900993    0.37492990    0.53875918    0.06830000
opls_700-17    C    0.62506984    0.24407982    0.53875918    0.06830000
opls_145-18    C    0.36514992    0.58572985    0.38320086    -0.13030000
opls_145-19    C    0.41427990    0.77942981    0.38320086    -0.13030000
opls_145-20    C    0.22056990    0.63484983    0.38320086    -0.13030000
opls_145-21    C    0.63484995    0.41427994    0.38320086    -0.13030000
opls_145-22    C    0.58573002    0.22056989    0.38320086    -0.13030000
opls_145-23    C    0.77942995    0.36514986    0.38320086    -0.13030000
opls_145-24    C    0.38780990    0.56557993    0.38695976    -0.16880000
opls_145-25    C    0.43441997    0.82223994    0.38695976    -0.16910000
opls_145-26    C    0.17776999    0.61218993    0.38695976    -0.16910000
opls_145-27    C    0.61219010    0.43442007    0.38695976    -0.16910000
opls_145-28    C    0.56557989    0.17776985    0.38695976    -0.16910000
opls_145-29    C    0.82223995    0.38781987    0.38695976    -0.16910000
opls_145-30    C    0.42729998    0.58457006    0.54117128    0.19070000
opls_145-31    C    0.41542996    0.84272994    0.54117128    0.19080000
opls_145-32    C    0.15727006    0.57270000    0.54117128    0.19070000
opls_145-33    C    0.57270002    0.41542994    0.54117128    0.19070000
opls_145-34    C    0.58457004    0.15727006    0.54117128    0.19070000
opls_145-35    C    0.84272994    0.42730000    0.54117128    0.19080000
opls_145-36    C    0.44348002    0.62382980    0.68899100    -0.16730000
opls_145-37    C    0.37616982    0.81964977    0.68899100    -0.16730000
opls_145-38    C    0.18034985    0.55651982    0.68899100    -0.16730000
opls_145-39    C    0.55651983    0.37616989    0.68899100    -0.16730000
opls_145-40    C    0.62383002    0.18034993    0.68899100    -0.16730000
opls_145-41    C    0.81965000    0.44347987    0.68899100    -0.16730000
opls_145-42    C    0.42059997    0.64371985    0.69316940    -0.13100000
opls_145-43    C    0.35628004    0.77688004    0.69316940    -0.13100000
opls_145-44    C    0.22311983    0.57939981    0.69316940    -0.13100000
opls_145-45    C    0.57939988    0.35627984    0.69316940    -0.13100000
opls_145-46    C    0.64371996    0.22311996    0.69316940    -0.13100000
opls_145-47    C    0.77688001    0.42059988    0.69316940    -0.13100000
opls_142-48    C    0.44086990    0.52777995    0.47494894    0.07040000
opls_142-49    C    0.47221999    0.91308984    0.47494894    0.07040000
opls_142-50    C    0.08690995    0.55912989    0.47494894    0.07040000
opls_142-51    C    0.55913010    0.47222005    0.47494894    0.07040000
opls_142-52    C    0.52777986    0.08690985    0.47494894    0.07040000
opls_142-53    C    0.91308990    0.44086980    0.47494894    0.07040000
opls_700-54    C    0.47065987    0.51296986    0.49040128    0.03500000
opls_700-55    C    0.48703988    0.95769002    0.49040128    0.03500000
opls_700-56    C    0.04230990    0.52933981    0.49040128    0.03500000
opls_700-57    C    0.52933999    0.48703994    0.49040128    0.03500000
opls_700-58    C    0.51296993    0.04230998    0.49040128    0.03500000
opls_700-59    C    0.95768995    0.47065988    0.49040128    0.03500000
opls_700-60    C    0.45768004    0.47069998    0.49323012    0.06840000
opls_700-61    C    0.52929992    0.98697994    0.49323012    0.06900000
opls_700-62    C    0.01302004    0.54232008    0.49323012    0.06840000
opls_700-63    C    0.54231996    0.52930002    0.49323012    0.07080000
opls_700-64    C    0.47070008    0.01302006    0.49323012    0.06840000
opls_700-65    C    0.98697996    0.45767992    0.49323012    0.06850000
opls_145-66    C    0.48724002    0.45842006    0.49440029    -0.17010000
opls_145-67    C    0.54158003    0.02882007    0.49440029    -0.17010000
opls_145-68    C    0.97117996    0.51275987    0.49440029    -0.17010000
opls_145-69    C    0.51275998    0.54157994    0.49440029    -0.17010000
opls_145-70    C    0.45841997    0.97117993    0.49440029    -0.17010000
opls_145-71    C    0.02881989    0.48723982    0.49440029    -0.17010000
opls_142-72    C    0.41361007    0.43929004    0.52120108    -0.08070000
opls_142-73    C    0.56070991    0.97431986    0.52120108    -0.08080000
opls_142-74    C    0.02567987    0.58638979    0.52120108    -0.08080000
opls_142-75    C    0.58638993    0.56070996    0.52120108    -0.08080000
opls_142-76    C    0.43929009    0.02568014    0.52120108    -0.08080000
opls_142-77    C    0.97431998    0.41360990    0.52120108    -0.08080000
opls_143-78    C    0.60249990    0.59761981    0.36573936    -0.28940000
opls_143-79    C    0.40238011    0.00486997    0.36573936    -0.28940000
opls_143-80    C    0.99512989    0.39749982    0.36573936    -0.28940000
opls_143-81    C    0.39751002    0.40237989    0.36573936    -0.28940000
opls_143-82    C    0.59761973    0.99512972    0.36573936    -0.28930000
opls_143-83    C    0.00486995    0.60249988    0.36573936    -0.28920000
opls_750-84    N    0.45237003    0.56578991    0.54844897    -0.33930000
opls_750-85    N    0.43420995    0.88657988    0.54844897    -0.33920000
opls_750-86    N    0.11341987    0.54762991    0.54844897    -0.33930000
opls_750-87    N    0.54762997    0.43421009    0.54844897    -0.33920000
opls_750-88    N    0.56579005    0.11342012    0.54844897    -0.33930000
opls_750-89    N    0.88658013    0.45237009    0.54844897    -0.33920000
opls_146-90    H    0.29810008    0.59103999    0.53877022    0.09200000
opls_146-91    H    0.40895991    0.70705977    0.53877022    0.09200000
opls_146-92    H    0.29293986    0.70189993    0.53877022    0.09200000
opls_146-93    H    0.70189992    0.40896001    0.53877022    0.09200000
opls_146-94    H    0.59103994    0.29293992    0.53877022    0.09200000
opls_146-95    H    0.70706014    0.29810007    0.53877022    0.10200000
opls_146-96    H    0.33585986    0.57086986    0.24459900    0.11690000
opls_146-97    H    0.42912989    0.76498978    0.24459900    0.11690000
opls_146-98    H    0.23501010    0.66414006    0.24459900    0.11690000
opls_146-99    H    0.66413998    0.42912983    0.24459900    0.11690000
opls_146-100    H    0.57086996    0.23500992    0.24459900    0.12130000
opls_146-101    H    0.76498990    0.33585994    0.24459900    0.11700000
opls_146-102    H    0.37479992    0.53600993    0.25588950    0.11480000
opls_146-103    H    0.46398984    0.83878988    0.25588950    0.11480000
opls_146-104    H    0.16120983    0.62519988    0.25588950    0.12470000
opls_146-105    H    0.62520008    0.46399007    0.25588950    0.11480000
opls_146-106    H    0.53601016    0.16121012    0.25588950    0.11480000
opls_146-107    H    0.83879002    0.37479981    0.25588950    0.11480000
opls_146-108    H    0.47366987    0.63844981    0.81161892    0.12000000
opls_146-109    H    0.36154982    0.83521990    0.81161892    0.12000000
opls_146-110    H    0.16477990    0.52632998    0.81161892    0.12000000
opls_146-111    H    0.52632998    0.36154988    0.81161892    0.12000000
opls_146-112    H    0.63845018    0.16478010    0.81161892    0.12000000
opls_146-113    H    0.83522010    0.47367002    0.81161892    0.12000000
opls_146-114    H    0.43364995    0.67306977    0.82959099    0.11620000
opls_146-115    H    0.32692997    0.76057987    0.82959099    0.11610000
opls_146-116    H    0.23941993    0.56635006    0.82959099    0.11610000
opls_146-117    H    0.56634990    0.32692993    0.82959099    0.11610000
opls_146-118    H    0.67306988    0.23941983    0.82959099    0.11610000
opls_146-119    H    0.76058007    0.43364994    0.82959099    0.11610000
opls_144-120    H    0.40951010    0.50648003    0.40332009    0.10000000
opls_144-121    H    0.49352001    0.90301993    0.40332009    0.10000000
opls_144-122    H    0.09697996    0.59048994    0.40332009    0.10000000
opls_144-123    H    0.59048990    0.49351997    0.40332009    0.10000000
opls_144-124    H    0.50647999    0.09698007    0.40332009    0.10000000
opls_144-125    H    0.90302004    0.40951006    0.40332009    0.10000000
opls_146-126    H    0.47746017    0.42616010    0.50455097    0.11840000
opls_146-127    H    0.57383999    0.05129999    0.50455097    0.11840000
opls_146-128    H    0.94869984    0.52253991    0.50455097    0.11840000
opls_146-129    H    0.52253983    0.57383990    0.50455097    0.11840000
opls_146-130    H    0.42616001    0.94870001    0.50455097    0.11840000
opls_146-131    H    0.05130016    0.47746009    0.50455097    0.11840000
opls_144-132    H    0.58441014    0.60627005    0.19597064    0.12740000
opls_144-133    H    0.39372992    0.97815002    0.19597064    0.12670000
opls_144-134    H    0.02185014    0.41559003    0.19597064    0.12740000
opls_144-135    H    0.41558986    0.39372995    0.19597064    0.12740000
opls_144-136    H    0.60627008    0.02184998    0.19597064    0.12670000
opls_144-137    H    0.97814986    0.58440997    0.19597064    0.12750000
opls_144-138    H    0.63478985    0.61938989    0.39759066    0.12720000
opls_144-139    H    0.38061005    0.01541004    0.39759066    0.12740000
opls_144-140    H    0.98458989    0.36520986    0.39759066    0.12650000
opls_144-141    H    0.36521000    0.38060980    0.39759066    0.12670000
opls_144-142    H    0.61938995    0.98458996    0.39759066    0.12740000
opls_144-143    H    0.01540995    0.63478984    0.39759066    0.12660000
opls_144-144    H    0.39343996    0.44635992    0.67747972    0.11420000
opls_144-145    H    0.55363992    0.94707985    0.67747972    0.11420000
opls_144-146    H    0.05291997    0.60655992    0.67747972    0.11420000
opls_144-147    H    0.60656004    0.55364008    0.67747972    0.11420000
opls_144-148    H    0.44636008    0.05292015    0.67747972    0.11420000
opls_144-149    H    0.94708003    0.39344008    0.67747972    0.11420000
