#======================================================================
# Crystal Data Generated By AuToFF
#----------------------------------------------------------------------

data_AuToFF_phase_1

_cell_length_a                         46.8300
_cell_length_b                         46.8300
_cell_length_c                         4.5000
_cell_angle_alpha                      90.00
_cell_angle_beta                       90.00
_cell_angle_gamma                      120.00
_symmetry_space_group_name_H-M_alt     'P 1'
_symmetry_space_group_IT_number        1

loop_
_space_group_symop_operation_xyz
   'x, y, z'

loop_
   _atom_site_label
   _atom_site_type_symbol
   _atom_site_fract_x
   _atom_site_fract_y
   _atom_site_fract_z
   _atom_site_charge
opls_700-0    C    0.48956990    0.48749000    0.05924000    -0.02510000
opls_700-1    C    0.51863007    0.51736008    0.06567111    -0.05890000
opls_700-2    C    0.52003987    0.55042994    0.05538000    0.07230000
opls_700-3    C    0.55215001    0.52008989    0.07370000    0.07380000
opls_700-4    C    0.48775991    0.45437996    0.06261111    0.07200000
opls_700-5    C    0.45623994    0.48481000    0.04318889    0.07250000
opls_145-6    C    0.54582007    0.57668008    0.90070889    -0.12280000
opls_145-7    C    0.54781988    0.60697993    0.88126889    -0.15930000
opls_145-8    C    0.52455992    0.61296993    0.01882000    0.23480000
opls_145-9    C    0.49923006    0.58704008    0.17969111    -0.15410000
opls_145-10    C    0.49701995    0.55661004    0.19688000    -0.12520000
opls_145-11    C    0.55986000    0.50000999    0.90118000    -0.12220000
opls_145-12    C    0.59099991    0.50382003    0.90628000    -0.15310000
opls_145-13    C    0.61601998    0.52794003    0.08292889    0.23480000
opls_145-14    C    0.60836993    0.54817996    0.25500000    -0.15800000
opls_145-15    C    0.57725001    0.54445005    0.24909111    -0.11910000
opls_145-16    C    0.44981989    0.50411000    0.84805111    -0.12810000
opls_145-17    C    0.41903997    0.50108998    0.83473111    -0.15250000
opls_145-18    C    0.39311003    0.47817991    0.01219111    0.22840000
opls_145-19    C    0.39940996    0.45826003    0.20290000    -0.15800000
opls_145-20    C    0.43026003    0.46146005    0.21782889    -0.10610000
opls_145-21    C    0.46326005    0.42826001    0.89608000    -0.10900000
opls_145-22    C    0.46025009    0.39744999    0.90067111    -0.15250000
opls_145-23    C    0.48164000    0.39128000    0.06975111    0.22600000
opls_145-24    C    0.50599002    0.41730995    0.23736000    -0.15850000
opls_145-25    C    0.50878992    0.44802997    0.23540889    -0.12780000
opls_142-26    C    0.67282989    0.54974989    0.23806000    0.06420000
opls_142-27    C    0.33620011    0.45802011    0.14782000    0.06320000
opls_700-28    C    0.70271007    0.54860998    0.18936000    0.05220000
opls_700-29    C    0.30743003    0.46117994    0.10051111    0.07110000
opls_145-30    C    0.70512995    0.52801006    0.97625111    -0.12420000
opls_145-31    C    0.73347990    0.52682996    0.93742000    -0.11100000
opls_700-32    C    0.76178990    0.54585996    0.11530889    0.07330000
opls_145-33    C    0.75944011    0.56742004    0.32334000    -0.11970000
opls_145-34    C    0.73093002    0.56846008    0.35860889    -0.12410000
opls_145-35    C    0.30665993    0.48333994    0.89438889    -0.11900000
opls_145-36    C    0.27921998    0.48619994    0.85692000    -0.11970000
opls_700-37    C    0.25025007    0.46696010    0.02744889    0.07180000
opls_145-38    C    0.25101996    0.44410995    0.23207111    -0.12310000
opls_145-39    C    0.27877009    0.44169009    0.26640000    -0.12420000
opls_700-40    C    0.79015989    0.54134989    0.10308000    0.07340000
opls_700-41    C    0.22264001    0.47214997    0.01020889    0.07410000
opls_145-42    C    0.22682008    0.50369995    0.94186889    -0.12220000
opls_145-43    C    0.20110993    0.50963989    0.96408000    -0.12450000
opls_700-44    C    0.16944986    0.48488989    0.04718889    0.01570000
opls_145-45    C    0.16482990    0.45333992    0.10242000    -0.12620000
opls_145-46    C    0.19026999    0.44694998    0.08481111    -0.11160000
opls_142-47    C    0.14339999    0.49265990    0.07604000    0.05660000
opls_145-48    C    0.08762003    0.47437011    0.19332000    0.22600000
opls_145-49    C    0.09045001    0.49617997    0.41964000    -0.15800000
opls_145-50    C    0.06420010    0.50024004    0.49678000    -0.12420000
opls_700-51    C    0.03392003    0.48304997    0.34800889    0.07220000
opls_145-52    C    0.03202010    0.46306006    0.10744000    -0.11480000
opls_145-53    C    0.05777985    0.45790990    0.03912000    -0.15250000
opls_700-54    C    0.00430010    0.48624999    0.43177111    -0.00770000
opls_145-55    C    0.79018011    0.51596004    0.93048000    -0.11600000
opls_145-56    C    0.81525006    0.50903011    0.94942000    -0.12080000
opls_700-57    C    0.84244002    0.52695990    0.13604000    0.04480000
opls_145-58    C    0.84324992    0.55285005    0.29982889    -0.12410000
opls_145-59    C    0.81841013    0.56013011    0.28262000    -0.11150000
opls_142-60    C    0.86789991    0.51824996    0.15264000    0.07160000
opls_145-61    C    0.91977998    0.53006006    0.35540000    0.23470000
opls_145-62    C    0.91661004    0.49891002    0.32744000    -0.18180000
opls_145-63    C    0.94352005    0.49461004    0.35374000    -0.12420000
opls_700-64    C    0.97525992    0.52087005    0.41624000    0.06660000
opls_145-65    C    0.97813992    0.55222006    0.43888889    -0.11480000
opls_145-66    C    0.95116004    0.55646998    0.41412000    -0.12970000
opls_700-67    C    0.00558998    0.51643001    0.42152889    -0.00900000
opls_700-68    C    0.03849989    0.54763997    0.38764889    0.06810000
opls_145-69    C    0.06029009    0.55085010    0.16100889    -0.12780000
opls_145-70    C    0.09079998    0.57882995    0.13373111    -0.15850000
opls_145-71    C    0.10028000    0.60600992    0.32065111    0.21110000
opls_145-72    C    0.07827008    0.60283998    0.54757111    -0.15950000
opls_145-73    C    0.04856000    0.57406000    0.58572889    -0.11100000
opls_700-74    C    0.97432011    0.45448007    0.53752000    0.06580000
opls_145-75    C    0.95443007    0.45498998    0.76893111    -0.11160000
opls_145-76    C    0.92671000    0.42648000    0.86286000    -0.15740000
opls_145-77    C    0.91815003    0.39565987    0.74252889    0.22030000
opls_145-78    C    0.93894995    0.39500005    0.52222000    -0.15310000
opls_145-79    C    0.96629998    0.42336997    0.42448889    -0.11910000
opls_142-80    C    0.50770988    0.65345990    0.09154000    0.06600000
opls_700-81    C    0.51577004    0.68723002    0.04992000    0.06520000
opls_142-82    C    0.50130993    0.35323998    0.10862000    0.05950000
opls_700-83    C    0.49323998    0.31944002    0.14956000    0.05220000
opls_145-84    C    0.54408005    0.71086008    0.89874889    -0.12060000
opls_145-85    C    0.55136010    0.74290000    0.87074000    -0.12340000
opls_700-86    C    0.53009005    0.75351003    0.99460889    0.07270000
opls_145-87    C    0.50074000    0.72892992    0.13980000    -0.12060000
opls_145-88    C    0.49448015    0.69726011    0.16772000    -0.12230000
opls_145-89    C    0.46067992    0.29310999    0.16818000    -0.12500000
opls_145-90    C    0.45368986    0.26136990    0.21398000    -0.12050000
opls_700-91    C    0.47941998    0.25375006    0.24091111    0.07160000
opls_145-92    C    0.51240999    0.28055006    0.21656000    -0.12320000
opls_145-93    C    0.51871002    0.31212002    0.17490000    -0.12220000
opls_700-94    C    0.53886009    0.78705009    0.00483111    0.07260000
opls_700-95    C    0.47283002    0.22118001    0.30183111    0.06890000
opls_145-96    C    0.44833995    0.20026990    0.51160000    -0.12660000
opls_145-97    C    0.44534999    0.17074995    0.59511111    -0.13000000
opls_700-98    C    0.46560003    0.15954001    0.47490889    0.06780000
opls_145-99    C    0.48888009    0.17950008    0.25964000    -0.13000000
opls_145-100    C    0.49245990    0.20907995    0.17334889    -0.11970000
opls_145-101    C    0.56741997    0.81076991    0.16556000    -0.12380000
opls_145-102    C    0.57171998    0.84119995    0.23198889    -0.12410000
opls_700-103    C    0.54933000    0.85092010    0.13706000    0.06840000
opls_145-104    C    0.52217011    0.82842008    0.96648000    -0.12400000
opls_145-105    C    0.51689009    0.79766999    0.89988000    -0.12380000
opls_142-106    C    0.46256995    0.12867995    0.57057111    0.09400000
opls_145-107    C    0.48678994    0.09333003    0.49026889    0.23400000
opls_142-108    C    0.55461999    0.88299996    0.21959111    0.06360000
opls_145-109    C    0.53217011    0.91958003    0.21474889    0.23280000
opls_145-110    C    0.46253996    0.06336009    0.61103111    -0.15810000
opls_145-111    C    0.46592003    0.03572988    0.60090000    -0.11000000
opls_700-112    C    0.49369998    0.03674995    0.47100000    0.07200000
opls_145-113    C    0.51830006    0.06716003    0.35976889    -0.12000000
opls_145-114    C    0.51483991    0.09460999    0.36944000    -0.17790000
opls_145-115    C    0.55140004    0.94102003    0.44316889    -0.15430000
opls_145-116    C    0.54894997    0.96830010    0.51644889    -0.11150000
opls_700-117    C    0.52721996    0.97537009    0.36194000    0.07320000
opls_145-118    C    0.50898995    0.95481997    0.12659111    -0.12400000
opls_145-119    C    0.51080998    0.92706006    0.05997111    -0.15250000
opls_700-120    C    0.52484989    0.00525989    0.44028000    -0.02820000
opls_700-121    C    0.49543988    0.00539994    0.43588000    -0.05840000
opls_700-122    C    0.46242004    0.97453001    0.37852000    0.06550000
opls_700-123    C    0.55738999    0.03502000    0.51889111    0.07470000
opls_145-124    C    0.43812003    0.97686999    0.21521111    -0.11550000
opls_145-125    C    0.40752001    0.94969002    0.16530000    -0.14700000
opls_145-126    C    0.39969006    0.91859004    0.27250000    0.22600000
opls_145-127    C    0.42391998    0.91605009    0.43318889    -0.15410000
opls_145-128    C    0.45438013    0.94330009    0.48769111    -0.10330000
opls_145-129    C    0.58630001    0.04163012    0.36866000    -0.11060000
opls_145-130    C    0.61604001    0.06899995    0.44130000    -0.15930000
opls_145-131    C    0.61834998    0.09108006    0.66315111    0.22000000
opls_145-132    C    0.58934996    0.08406999    0.81405111    -0.15950000
opls_145-133    C    0.55972011    0.05629011    0.74733111    -0.12410000
opls_142-134    C    0.65669003    0.14213000    0.91746000    0.08820000
opls_700-135    C    0.69037995    0.16902000    0.93174889    0.06800000
opls_142-136    C    0.88372993    0.33728006    0.79073111    0.06020000
opls_700-137    C    0.85168004    0.30931993    0.85629111    0.04710000
opls_142-138    C    0.13873997    0.66366998    0.37773111    0.06020000
opls_700-139    C    0.17062997    0.69183008    0.31059111    0.07110000
opls_142-140    C    0.36123992    0.86490990    0.08460000    0.08130000
opls_700-141    C    0.32853003    0.83648992    0.11134000    0.06980000
opls_145-142    C    0.71540016    0.17045012    0.74962000    -0.12410000
opls_145-143    C    0.74700998    0.19630994    0.76116000    -0.11950000
opls_700-144    C    0.75631991    0.22330991    0.95798889    0.07340000
opls_145-145    C    0.73104992    0.22134990    0.14624000    -0.12340000
opls_145-146    C    0.69943009    0.19528000    0.13092000    -0.10940000
opls_145-147    C    0.82638993    0.31077003    0.01126000    -0.11160000
opls_145-148    C    0.79629988    0.28316990    0.05952000    -0.12290000
opls_700-149    C    0.78905011    0.25177008    0.94952889    0.07570000
opls_145-150    C    0.81527994    0.25048002    0.80436000    -0.11090000
opls_145-151    C    0.84509007    0.27823992    0.75742889    -0.11990000
opls_145-152    C    0.19470998    0.69129995    0.12827111    -0.11910000
opls_145-153    C    0.22452997    0.71910991    0.07658000    -0.12350000
opls_700-154    C    0.23270006    0.74998009    0.20537111    0.06920000
opls_145-155    C    0.20790009    0.75022000    0.38487111    -0.11100000
opls_145-156    C    0.17838002    0.72223004    0.43598000    -0.12220000
opls_145-157    C    0.30518996    0.83517001    0.31510889    -0.12400000
opls_145-158    C    0.27463997    0.80783002    0.34402000    -0.11760000
opls_700-159    C    0.26459008    0.77928009    0.16657111    0.06850000
opls_145-160    C    0.28810997    0.78108007    0.95676000    -0.12320000
opls_145-161    C    0.31880005    0.80849996    0.93354000    -0.11810000
opls_750-162    N    0.52757011    0.64411010    0.99154000    -0.27270000
opls_750-163    N    0.64726995    0.53101011    0.07838889    -0.27110000
opls_750-164    N    0.47780010    0.35973002    0.07330000    -0.26480000
opls_750-165    N    0.36239000    0.47617996    0.99316000    -0.27270000
opls_750-166    N    0.11359999    0.46912995    0.12038889    -0.27050000
opls_750-167    N    0.89329995    0.53553990    0.31914889    -0.27280000
opls_750-168    N    0.13066998    0.63485992    0.27403111    -0.28280000
opls_750-169    N    0.88976001    0.36701009    0.83994889    -0.28650000
opls_750-170    N    0.48414999    0.12162007    0.47222000    -0.23110000
opls_750-171    N    0.53332004    0.89127002    0.13750000    -0.27150000
opls_750-172    N    0.64906015    0.11883010    0.72502000    -0.28500000
opls_750-173    N    0.36822999    0.89132993    0.23160000    -0.27170000
opls_146-174    H    0.56505986    0.57386989    0.79049111    0.11280000
opls_146-175    H    0.56808000    0.62661995    0.75378000    0.09230000
opls_146-176    H    0.48044005    0.59028005    0.29475111    0.06590000
opls_146-177    H    0.47605994    0.53751001    0.31782000    0.11740000
opls_146-178    H    0.54128997    0.48060002    0.76242889    0.11740000
opls_146-179    H    0.59604001    0.48759998    0.76730889    0.08470000
opls_146-180    H    0.62703990    0.56751990    0.39686000    0.06220000
opls_146-181    H    0.57277995    0.56128999    0.38285111    0.11420000
opls_146-182    H    0.46956998    0.52236995    0.70979111    0.11690000
opls_146-183    H    0.41503989    0.51700995    0.68194000    0.08600000
opls_146-184    H    0.38003002    0.43984992    0.34618889    0.06220000
opls_146-185    H    0.43385987    0.44529992    0.36964889    0.13560000
opls_146-186    H    0.44573995    0.43149997    0.76006889    0.04940000
opls_146-187    H    0.44077002    0.37766006    0.76788000    0.09180000
opls_146-188    H    0.52296995    0.41347994    0.37705111    0.09010000
opls_146-189    H    0.52814005    0.46734994    0.36908000    0.11740000
opls_144-190    H    0.67316009    0.56645002    0.41130000    0.07180000
opls_144-191    H    0.33466011    0.44063007    0.31958000    0.07410000
opls_146-192    H    0.68411006    0.51220005    0.83307111    0.08600000
opls_146-193    H    0.73310990    0.50991999    0.76720000    0.06220000
opls_146-194    H    0.77984005    0.58267007    0.47390889    0.12040000
opls_146-195    H    0.73048989    0.58494989    0.52969111    0.09040000
opls_146-196    H    0.32824009    0.49902000    0.75667111    0.09230000
opls_146-197    H    0.27992000    0.50384000    0.69240000    0.08440000
opls_146-198    H    0.22979999    0.42935997    0.37702889    0.08230000
opls_146-199    H    0.27827005    0.42430991    0.43294889    0.07150000
opls_146-200    H    0.25132999    0.52420001    0.88646889    0.12830000
opls_146-201    H    0.20594999    0.53459996    0.91586000    0.08010000
opls_146-202    H    0.14054985    0.43308988    0.16748889    0.10470000
opls_146-203    H    0.18552001    0.42212010    0.13768000    0.12040000
opls_144-204    H    0.15030000    0.51876999    0.07006000    0.08390000
opls_146-205    H    0.11351991    0.50977994    0.54480000    0.09860000
opls_146-206    H    0.06833002    0.51745994    0.67621111    0.11590000
opls_146-207    H    0.01015002    0.45090008    0.96592889    0.13560000
opls_146-208    H    0.05481001    0.44113999    0.85602000    0.07360000
opls_146-209    H    0.76951010    0.50026001    0.78421111    0.08100000
opls_146-210    H    0.81356001    0.48885010    0.81268000    0.08370000
opls_146-211    H    0.86390010    0.56776006    0.44991111    0.08230000
opls_146-212    H    0.82059990    0.58017993    0.42360000    0.09140000
opls_144-213    H    0.86467010    0.49725010    0.01832000    0.07260000
opls_146-214    H    0.89258999    0.47727992    0.27954000    0.09140000
opls_146-215    H    0.93848999    0.46963000    0.31303111    0.11790000
opls_146-216    H    0.00140998    0.57515010    0.46748000    0.11270000
opls_146-217    H    0.95479992    0.58139998    0.43296889    0.06220000
opls_146-218    H    0.05291005    0.53091000    0.00152000    0.11590000
opls_146-219    H    0.10723993    0.58001991    0.95440889    0.08530000
opls_146-220    H    0.08447011    0.62300002    0.70484000    0.09010000
opls_146-221    H    0.03297995    0.57260990    0.77426000    0.07590000
opls_146-222    H    0.96028992    0.47842993    0.87271111    0.10990000
opls_146-223    H    0.91105993    0.42791998    0.03664000    0.09230000
opls_146-224    H    0.93365002    0.37178990    0.41622000    0.07190000
opls_146-225    H    0.98025986    0.41932988    0.25218000    0.11180000
opls_144-226    H    0.48490000    0.63717006    0.21245111    0.07950000
opls_144-227    H    0.52741991    0.37232989    0.11880000    0.07810000
opls_146-228    H    0.56128010    0.70406009    0.80058889    0.09860000
opls_146-229    H    0.57407999    0.76090992    0.75828889    0.08940000
opls_146-230    H    0.48425987    0.73626990    0.24485111    0.09230000
opls_146-231    H    0.47225994    0.67969007    0.28930000    0.08470000
opls_146-232    H    0.43995002    0.29758997    0.14918000    0.11320000
opls_146-233    H    0.42797000    0.24157997    0.23004000    0.10050000
opls_146-234    H    0.53302011    0.27593003    0.24150000    0.10470000
opls_146-235    H    0.54449993    0.33183992    0.16222000    0.12040000
opls_146-236    H    0.43311989    0.20887998    0.62134000    0.09860000
opls_146-237    H    0.42701007    0.15619994    0.76552000    0.08420000
opls_146-238    H    0.50497000    0.17177003    0.15294889    0.08940000
opls_146-239    H    0.51111996    0.22389996    0.00604000    0.07150000
opls_146-240    H    0.58435002    0.80328001    0.25780000    0.08940000
opls_146-241    H    0.59311003    0.85788011    0.36756889    0.08600000
opls_146-242    H    0.50409008    0.83493010    0.88527111    0.07840000
opls_146-243    H    0.49465015    0.78025011    0.77767111    0.08480000
opls_144-244    H    0.44186004    0.11232995    0.71487111    0.07850000
opls_144-245    H    0.57618996    0.89866991    0.35801111    0.07780000
opls_146-246    H    0.44005010    0.06117003    0.70712889    0.06590000
opls_146-247    H    0.44556989    0.01264993    0.68698889    0.11570000
opls_146-248    H    0.54090001    0.07052007    0.25866000    0.11400000
opls_146-249    H    0.53429002    0.11766011    0.27266889    0.09570000
opls_146-250    H    0.56832011    0.93614010    0.57268000    0.07190000
opls_146-251    H    0.56408990    0.98390989    0.70064000    0.07350000
opls_146-252    H    0.49285015    0.96053010    0.99556889    0.11390000
opls_146-253    H    0.49556012    0.91096009    0.87887111    0.08530000
opls_146-254    H    0.44269012    0.00057008    0.12776889    0.09950000
opls_146-255    H    0.38910999    0.95274999    0.04070889    0.09160000
opls_146-256    H    0.41860006    0.89217001    0.52389111    0.06570000
opls_146-257    H    0.47174992    0.93915988    0.61594000    0.11240000
opls_146-258    H    0.58597013    0.02566009    0.18840000    0.11280000
opls_146-259    H    0.63816003    0.07360001    0.31808000    0.08290000
opls_146-260    H    0.58977003    0.10043010    0.99027111    0.09570000
opls_146-261    H    0.53752005    0.05111997    0.86978889    0.11360000
opls_144-262    H    0.63879998    0.14299991    0.06954000    0.07600000
opls_144-263    H    0.90142006    0.33169001    0.68362000    0.07950000
opls_144-264    H    0.12220996    0.66841010    0.51556000    0.07990000
opls_144-265    H    0.37939992    0.86233987    0.95014889    0.07600000
opls_146-266    H    0.71003002    0.15090010    0.58724000    0.09210000
opls_146-267    H    0.76468009    0.19628010    0.60156000    0.09150000
opls_146-268    H    0.73643997    0.24094998    0.30794889    0.08540000
opls_146-269    H    0.68102005    0.19529998    0.28186000    0.07300000
opls_146-270    H    0.83034008    0.33442006    0.09630889    0.09230000
opls_146-271    H    0.77725009    0.28614998    0.17316889    0.07840000
opls_146-272    H    0.81182011    0.22717001    0.71595111    0.12830000
opls_146-273    H    0.86383992    0.27557990    0.63414000    0.08230000
opls_146-274    H    0.19002009    0.66829002    0.02192889    0.09150000
opls_146-275    H    0.24226005    0.71669991    0.93528889    0.06090000
opls_146-276    H    0.21186002    0.77290988    0.49160889    0.10990000
opls_146-277    H    0.16066999    0.72415997    0.58196889    0.09230000
opls_146-278    H    0.31127005    0.85601010    0.46384889    0.08230000
opls_146-279    H    0.25858984    0.80846988    0.51803111    0.07840000
opls_146-280    H    0.28216992    0.76040987    0.80664000    0.07840000
opls_146-281    H    0.33576006    0.80822010    0.76675111    0.08420000
