#======================================================================
# Crystal Data Generated By AuToFF
#----------------------------------------------------------------------

data_AuToFF_phase_1

_cell_length_a                         38.8200
_cell_length_b                         38.8200
_cell_length_c                         4.0500
_cell_angle_alpha                      90.00
_cell_angle_beta                       90.00
_cell_angle_gamma                      120.00
_symmetry_space_group_name_H-M_alt     'P 1'
_symmetry_space_group_IT_number        1

loop_
_space_group_symop_operation_xyz
   'x, y, z'

loop_
   _atom_site_label
   _atom_site_type_symbol
   _atom_site_fract_x
   _atom_site_fract_y
   _atom_site_fract_z
   _atom_site_charge
opls_702-0    H    0.57634001    0.58921994    0.21923951    0.07900000
opls_140-1    H    0.62927002    0.65754983    0.22166914    0.10360000
opls_140-2    H    0.61844010    0.71615995    0.21976049    0.15530000
opls_702-3    H    0.41077990    0.98711983    0.21923951    0.07900000
opls_140-4    H    0.34244988    0.97171995    0.22166914    0.10360000
opls_140-5    H    0.28383989    0.90227998    0.21976049    0.15540000
opls_702-6    H    0.01287994    0.42365994    0.21923951    0.07900000
opls_140-7    H    0.02827995    0.37072992    0.22166914    0.10360000
opls_140-8    H    0.09772001    0.38156007    0.21976049    0.15530000
opls_702-9    H    0.42365999    0.41078006    0.21923951    0.07900000
opls_140-10    H    0.37072983    0.34244987    0.22166914    0.10360000
opls_140-11    H    0.38155990    0.28384005    0.21976049    0.15530000
opls_702-12    H    0.58921995    0.01287988    0.21923951    0.07900000
opls_140-13    H    0.65755012    0.02828005    0.22166914    0.10360000
opls_140-14    H    0.71616011    0.09772002    0.21976049    0.15530000
opls_702-15    H    0.98712006    0.57634006    0.21923951    0.07900000
opls_140-16    H    0.97171990    0.62926978    0.22166914    0.10360000
opls_140-17    H    0.90227999    0.61843993    0.21976049    0.15530000
opls_702-18    H    0.42365999    0.41078006    0.78076049    0.07900000
opls_140-19    H    0.37072983    0.34244987    0.77833086    0.10360000
opls_140-20    H    0.38155990    0.28384005    0.78023951    0.15540000
opls_702-21    H    0.58921995    0.01287988    0.78076049    0.07900000
opls_140-22    H    0.65755012    0.02828005    0.77833086    0.10360000
opls_140-23    H    0.71616011    0.09772002    0.78023951    0.15530000
opls_702-24    H    0.98712006    0.57634006    0.78076049    0.07910000
opls_140-25    H    0.97171990    0.62926978    0.77833086    0.10360000
opls_140-26    H    0.90227999    0.61843993    0.78023951    0.15530000
opls_702-27    H    0.57634001    0.58921994    0.78076049    0.07900000
opls_140-28    H    0.62927002    0.65754983    0.77833086    0.10360000
opls_140-29    H    0.61844010    0.71615995    0.78023951    0.15530000
opls_702-30    H    0.41077990    0.98711983    0.78076049    0.07900000
opls_140-31    H    0.34244988    0.97171995    0.77833086    0.10360000
opls_140-32    H    0.28383989    0.90227998    0.78023951    0.15530000
opls_702-33    H    0.01287994    0.42365994    0.78076049    0.07910000
opls_140-34    H    0.02827995    0.37072992    0.77833086    0.10360000
opls_140-35    H    0.09772001    0.38156007    0.78023951    0.15530000
opls_144-36    H    0.41515002    0.65313002    0.00000000    0.09210000
opls_910-37    H    0.34211983    0.56893981    0.00000000    0.27050000
opls_146-38    H    0.35149978    0.51432980    0.00000000    0.10340000
opls_146-39    H    0.45472997    0.63116989    0.00000000    0.11280000
opls_146-40    H    0.49453996    0.60188982    0.00000000    0.22250000
opls_146-41    H    0.39150994    0.48569995    0.00000000    0.22140000
opls_146-42    H    0.42851994    0.46566997    0.00000000    0.22190000
opls_140-43    H    0.66354002    0.72730004    0.00000000    0.15490000
opls_144-44    H    0.34687006    0.76201988    0.00000000    0.09210000
opls_910-45    H    0.43106007    0.77317990    0.00000000    0.27050000
opls_146-46    H    0.48567000    0.83716999    0.00000000    0.10340000
opls_146-47    H    0.36882991    0.82355987    0.00000000    0.11270000
opls_146-48    H    0.39810993    0.89265004    0.00000000    0.22250000
opls_146-49    H    0.51429981    0.90580982    0.00000000    0.22140000
opls_146-50    H    0.53432994    0.96285000    0.00000000    0.22190000
opls_140-51    H    0.27270003    0.93623984    0.00000000    0.15490000
opls_144-52    H    0.23798003    0.58484981    0.00000000    0.09210000
opls_910-53    H    0.22681996    0.65788000    0.00000000    0.27050000
opls_146-54    H    0.16283007    0.64849992    0.00000000    0.10340000
opls_146-55    H    0.17643997    0.54526994    0.00000000    0.11270000
opls_146-56    H    0.10734996    0.50545984    0.00000000    0.22250000
opls_146-57    H    0.09418984    0.60848993    0.00000000    0.22140000
opls_146-58    H    0.03715011    0.57148003    0.00000000    0.22190000
opls_140-59    H    0.06375980    0.33645983    0.00000000    0.15490000
opls_144-60    H    0.58484998    0.34686998    0.00000000    0.09210000
opls_910-61    H    0.65788002    0.43105989    0.00000000    0.27060000
opls_146-62    H    0.64850007    0.48566991    0.00000000    0.10340000
opls_146-63    H    0.54526988    0.36882981    0.00000000    0.11270000
opls_146-64    H    0.50545989    0.39810988    0.00000000    0.22250000
opls_146-65    H    0.60849006    0.51430005    0.00000000    0.22140000
opls_146-66    H    0.57148006    0.53433003    0.00000000    0.22190000
opls_140-67    H    0.33645998    0.27269996    0.00000000    0.15490000
opls_144-68    H    0.65312979    0.23797983    0.00000000    0.09210000
opls_910-69    H    0.56893993    0.22682010    0.00000000    0.27050000
opls_146-70    H    0.51433000    0.16283001    0.00000000    0.10340000
opls_146-71    H    0.63117009    0.17644013    0.00000000    0.11270000
opls_146-72    H    0.60189007    0.10734996    0.00000000    0.22250000
opls_146-73    H    0.48570004    0.09418988    0.00000000    0.22140000
opls_146-74    H    0.46567006    0.03715000    0.00000000    0.22190000
opls_140-75    H    0.72729982    0.06375987    0.00000000    0.15490000
opls_144-76    H    0.76201982    0.41514990    0.00000000    0.09210000
opls_910-77    H    0.77318004    0.34212000    0.00000000    0.27050000
opls_146-78    H    0.83716993    0.35150008    0.00000000    0.10340000
opls_146-79    H    0.82356003    0.45473006    0.00000000    0.11270000
opls_146-80    H    0.89264989    0.49453986    0.00000000    0.22250000
opls_146-81    H    0.90581016    0.39151007    0.00000000    0.22140000
opls_146-82    H    0.96284989    0.42851997    0.00000000    0.22200000
opls_140-83    H    0.93624006    0.66353987    0.00000000    0.15490000
opls_281-84    O    0.41325995    0.71149980    0.00000000    -0.40080000
opls_281-85    O    0.28849994    0.70175980    0.00000000    -0.40070000
opls_281-86    O    0.29823981    0.58673980    0.00000000    -0.40070000
opls_281-87    O    0.58673991    0.28849990    0.00000000    -0.40070000
opls_281-88    O    0.71149991    0.29823990    0.00000000    -0.40080000
opls_281-89    O    0.70176004    0.41325990    0.00000000    -0.40070000
opls_280-90    C    0.37708996    0.69149986    0.00000000    0.20110000
opls_145-91    C    0.35870005    0.64738002    0.00000000    -0.13530000
opls_142-92    C    0.38372991    0.63213988    0.00000000    0.05270000
opls_916-93    C    0.39897987    0.57502980    0.00000000    0.17420000
opls_145-94    C    0.38344996    0.53399986    0.00000000    -0.18280000
opls_145-95    C    0.44032986    0.59913989    0.00000000    -0.17640000
opls_145-96    C    0.46481998    0.58222987    0.00000000    -0.20900000
opls_145-97    C    0.40831999    0.51751995    0.00000000    -0.14210000
opls_700-98    C    0.45099983    0.54142986    0.00000000    0.05890000
opls_700-99    C    0.47936008    0.52370006    0.00000000    0.01730000
opls_145-100    C    0.45998990    0.48153981    0.00000000    -0.18380000
opls_700-101    C    0.52263984    0.54331986    0.00000000    0.05160000
opls_210-102    C    0.55835989    0.58734987    0.00000000    -0.24200000
opls_210-103    C    0.61750991    0.66493997    0.00000000    -0.15530000
opls_135-104    C    0.63060985    0.70893995    0.00000000    -0.42600000
opls_280-105    C    0.30849997    0.68558983    0.00000000    0.20120000
opls_145-106    C    0.35261999    0.71131984    0.00000000    -0.13530000
opls_142-107    C    0.36785981    0.75158980    0.00000000    0.05270000
opls_916-108    C    0.42497002    0.82394983    0.00000000    0.17420000
opls_145-109    C    0.46600007    0.84944991    0.00000000    -0.18270000
opls_145-110    C    0.40086008    0.84119003    0.00000000    -0.17640000
opls_145-111    C    0.41777001    0.88258999    0.00000000    -0.20900000
opls_145-112    C    0.48248007    0.89079991    0.00000000    -0.14210000
opls_700-113    C    0.45856985    0.90956988    0.00000000    0.05890000
opls_700-114    C    0.47630014    0.95566004    0.00000000    0.01730000
opls_145-115    C    0.51845981    0.97844976    0.00000000    -0.18380000
opls_700-116    C    0.45667999    0.97931980    0.00000000    0.05160000
opls_210-117    C    0.41265000    0.97100994    0.00000000    -0.24200000
opls_210-118    C    0.33506003    0.95256983    0.00000000    -0.15540000
opls_135-119    C    0.29105981    0.92166985    0.00000000    -0.42610000
opls_280-120    C    0.31440992    0.62291001    0.00000000    0.20110000
opls_145-121    C    0.28867980    0.64129984    0.00000000    -0.13530000
opls_142-122    C    0.24841013    0.61627003    0.00000000    0.05270000
opls_916-123    C    0.17604997    0.60102007    0.00000000    0.17420000
opls_145-124    C    0.15055008    0.61654993    0.00000000    -0.18270000
opls_145-125    C    0.15881005    0.55967008    0.00000000    -0.17640000
opls_145-126    C    0.11740986    0.53517984    0.00000000    -0.20900000
opls_145-127    C    0.10920005    0.59167985    0.00000000    -0.14210000
opls_700-128    C    0.09042991    0.54899996    0.00000000    0.05890000
opls_700-129    C    0.04434004    0.52063990    0.00000000    0.01730000
opls_145-130    C    0.02155000    0.54000983    0.00000000    -0.18380000
opls_700-131    C    0.02068002    0.47736005    0.00000000    0.05160000
opls_210-132    C    0.02898996    0.44163989    0.00000000    -0.24210000
opls_210-133    C    0.04742991    0.38248990    0.00000000    -0.15540000
opls_135-134    C    0.07832994    0.36938991    0.00000000    -0.42610000
opls_280-135    C    0.62290989    0.30849984    0.00000000    0.20110000
opls_145-136    C    0.64129995    0.35261998    0.00000000    -0.13530000
opls_142-137    C    0.61626994    0.36785983    0.00000000    0.05270000
opls_916-138    C    0.60101999    0.42496991    0.00000000    0.17430000
opls_145-139    C    0.61654990    0.46599984    0.00000000    -0.18280000
opls_145-140    C    0.55966999    0.40085981    0.00000000    -0.17640000
opls_145-141    C    0.53517987    0.41776983    0.00000000    -0.20900000
opls_145-142    C    0.59168001    0.48248005    0.00000000    -0.14210000
opls_700-143    C    0.54900002    0.45856984    0.00000000    0.05890000
opls_700-144    C    0.52063992    0.47629994    0.00000000    0.01730000
opls_145-145    C    0.54000995    0.51845989    0.00000000    -0.18380000
opls_700-146    C    0.47736002    0.45667985    0.00000000    0.05160000
opls_210-147    C    0.44163996    0.41264983    0.00000000    -0.24210000
opls_210-148    C    0.38249009    0.33506003    0.00000000    -0.15540000
opls_135-149    C    0.36939015    0.29106005    0.00000000    -0.42600000
opls_280-150    C    0.69149989    0.31440987    0.00000000    0.20130000
opls_145-151    C    0.64737986    0.28867986    0.00000000    -0.13530000
opls_142-152    C    0.63214004    0.24840991    0.00000000    0.05270000
opls_916-153    C    0.57502983    0.17604987    0.00000000    0.17430000
opls_145-154    C    0.53399993    0.15055009    0.00000000    -0.18270000
opls_145-155    C    0.59913992    0.15880997    0.00000000    -0.17640000
opls_145-156    C    0.58222999    0.11741001    0.00000000    -0.20900000
opls_145-157    C    0.51751993    0.10920009    0.00000000    -0.14210000
opls_700-158    C    0.54143015    0.09043012    0.00000000    0.05890000
opls_700-159    C    0.52369986    0.04433996    0.00000000    0.01730000
opls_145-160    C    0.48154004    0.02154995    0.00000000    -0.18380000
opls_700-161    C    0.54331986    0.02067990    0.00000000    0.05160000
opls_210-162    C    0.58735000    0.02899006    0.00000000    -0.24200000
opls_210-163    C    0.66493982    0.04742987    0.00000000    -0.15540000
opls_135-164    C    0.70894004    0.07832985    0.00000000    -0.42610000
opls_280-165    C    0.68559008    0.37708999    0.00000000    0.20110000
opls_145-166    C    0.71132005    0.35869986    0.00000000    -0.13530000
opls_142-167    C    0.75158987    0.38372997    0.00000000    0.05270000
opls_916-168    C    0.82395003    0.39897993    0.00000000    0.17410000
opls_145-169    C    0.84944992    0.38345007    0.00000000    -0.18270000
opls_145-170    C    0.84118995    0.44032992    0.00000000    -0.17640000
opls_145-171    C    0.88258999    0.46481986    0.00000000    -0.20900000
opls_145-172    C    0.89079980    0.40831985    0.00000000    -0.14200000
opls_700-173    C    0.90957009    0.45100004    0.00000000    0.05890000
opls_700-174    C    0.95565981    0.47935980    0.00000000    0.01730000
opls_145-175    C    0.97844985    0.45998987    0.00000000    -0.18380000
opls_700-176    C    0.97931998    0.52263995    0.00000000    0.05160000
opls_210-177    C    0.97100989    0.55835981    0.00000000    -0.24210000
opls_210-178    C    0.95256995    0.61750980    0.00000000    -0.15540000
opls_135-179    C    0.92166991    0.63060979    0.00000000    -0.42600000
opls_238-180    N    0.37197996    0.59044008    0.00000000    -0.37540000
opls_238-181    N    0.40956007    0.78154002    0.00000000    -0.37530000
opls_238-182    N    0.21845997    0.62801990    0.00000000    -0.37530000
opls_238-183    N    0.62802004    0.40955992    0.00000000    -0.37540000
opls_238-184    N    0.59043993    0.21845998    0.00000000    -0.37530000
opls_238-185    N    0.78154003    0.37198010    0.00000000    -0.37540000
opls_202-186    S    0.56344002    0.63688004    0.00000000    -0.00230000
opls_202-187    S    0.36311999    0.92655992    0.00000000    -0.00230000
opls_202-188    S    0.07343999    0.43656004    0.00000000    -0.00230000
opls_202-189    S    0.43655998    0.36311996    0.00000000    -0.00230000
opls_202-190    S    0.63688001    0.07344008    0.00000000    -0.00230000
opls_202-191    S    0.92656001    0.56343996    0.00000000    -0.00230000
