#======================================================================
# Crystal Data Generated By AuToFF
#----------------------------------------------------------------------

data_AuToFF_phase_1

_cell_length_a                         15.1435
_cell_length_b                         15.1435
_cell_length_c                         9.9839
_cell_angle_alpha                      90.00
_cell_angle_beta                       90.00
_cell_angle_gamma                      90.00
_symmetry_space_group_name_H-M_alt     'P 1'
_symmetry_space_group_IT_number        1

loop_
_space_group_symop_operation_xyz
   'x, y, z'

loop_
   _atom_site_label
   _atom_site_type_symbol
   _atom_site_fract_x
   _atom_site_fract_y
   _atom_site_fract_z
   _atom_site_charge
opls_700-0    C    0.68168983    0.62220028    0.71252016    0.05590000
opls_145-1    C    0.59645987    0.65602998    0.73247028    -0.11830000
opls_145-2    C    0.53958002    0.61680985    0.82511043    -0.13130000
opls_700-3    C    0.56692971    0.54422029    0.90373001    0.04530000
opls_145-4    C    0.65147027    0.50840030    0.87798956    -0.13170000
opls_145-5    C    0.70829993    0.54772014    0.78522020    -0.11650000
opls_142-6    C    0.74307987    0.66243999    0.61513036    0.01280000
opls_700-7    C    0.31831017    0.37779972    0.71252016    0.05590000
opls_145-8    C    0.40354013    0.34397002    0.73247028    -0.11830000
opls_145-9    C    0.46041998    0.38319015    0.82511043    -0.13130000
opls_700-10    C    0.43307029    0.45577971    0.90373001    0.04530000
opls_145-11    C    0.34852973    0.49159970    0.87798956    -0.13170000
opls_145-12    C    0.29170007    0.45227986    0.78522020    -0.11650000
opls_142-13    C    0.25692013    0.33756001    0.61513036    0.01280000
opls_700-14    C    0.87779972    0.18168983    0.71252016    0.05590000
opls_145-15    C    0.84397002    0.09645987    0.73247028    -0.11830000
opls_145-16    C    0.88319015    0.03958002    0.82511043    -0.13130000
opls_700-17    C    0.95577971    0.06692971    0.90373001    0.04530000
opls_145-18    C    0.99159970    0.15147027    0.87798956    -0.13170000
opls_145-19    C    0.95227986    0.20829993    0.78522020    -0.11650000
opls_142-20    C    0.83756001    0.24307987    0.61513036    0.01280000
opls_700-21    C    0.12220028    0.81831017    0.71252016    0.05590000
opls_145-22    C    0.15602998    0.90354013    0.73247028    -0.11830000
opls_145-23    C    0.11680985    0.96041998    0.82511043    -0.13130000
opls_700-24    C    0.04422029    0.93307029    0.90373001    0.04530000
opls_145-25    C    0.00840030    0.84852973    0.87798956    -0.13170000
opls_145-26    C    0.04772014    0.79170007    0.78522020    -0.11650000
opls_142-27    C    0.16243999    0.75692013    0.61513036    0.01280000
opls_700-28    C    0.81831017    0.87779972    0.28747984    0.05590000
opls_145-29    C    0.90354013    0.84397002    0.26752972    -0.11830000
opls_145-30    C    0.96041998    0.88319015    0.17488957    -0.13130000
opls_700-31    C    0.93307029    0.95577971    0.09626999    0.04530000
opls_145-32    C    0.84852973    0.99159970    0.12201044    -0.13170000
opls_145-33    C    0.79170007    0.95227986    0.21477980    -0.11650000
opls_142-34    C    0.75692013    0.83756001    0.38486964    0.01280000
opls_700-35    C    0.18168983    0.12220028    0.28747984    0.05590000
opls_145-36    C    0.09645987    0.15602998    0.26752972    -0.11830000
opls_145-37    C    0.03958002    0.11680985    0.17488957    -0.13130000
opls_700-38    C    0.06692971    0.04422029    0.09626999    0.04530000
opls_145-39    C    0.15147027    0.00840030    0.12201044    -0.13170000
opls_145-40    C    0.20829993    0.04772014    0.21477980    -0.11650000
opls_142-41    C    0.24307987    0.16243999    0.38486964    0.01280000
opls_700-42    C    0.62220028    0.31831017    0.28747984    0.05590000
opls_145-43    C    0.65602998    0.40354013    0.26752972    -0.11830000
opls_145-44    C    0.61680985    0.46041998    0.17488957    -0.13130000
opls_700-45    C    0.54422029    0.43307029    0.09626999    0.04530000
opls_145-46    C    0.50840030    0.34852973    0.12201044    -0.13170000
opls_145-47    C    0.54772014    0.29170007    0.21477980    -0.11650000
opls_142-48    C    0.66243999    0.25692013    0.38486964    0.01280000
opls_700-49    C    0.37779972    0.68168983    0.28747984    0.05590000
opls_145-50    C    0.34397002    0.59645987    0.26752972    -0.11830000
opls_145-51    C    0.38319015    0.53958002    0.17488957    -0.13130000
opls_700-52    C    0.45577971    0.56692971    0.09626999    0.04530000
opls_145-53    C    0.49159970    0.65147027    0.12201044    -0.13160000
opls_145-54    C    0.45227986    0.70829993    0.21477980    -0.11640000
opls_142-55    C    0.33756001    0.74307987    0.38486964    0.01280000
opls_701-56    C    0.50000000    0.50000000    0.00000000    0.00440000
opls_701-57    C    0.00000000    0.00000000    0.00000000    0.00440000
opls_146-58    H    0.57340971    0.71246013    0.67574996    0.11740000
opls_146-59    H    0.47363027    0.64347014    0.83620028    0.11620000
opls_146-60    H    0.67379007    0.44871001    0.92667995    0.12120000
opls_146-61    H    0.77297983    0.51909004    0.76900009    0.11280000
opls_144-62    H    0.80814013    0.63393997    0.60150042    0.10650000
opls_146-63    H    0.42659029    0.28753987    0.67574996    0.11740000
opls_146-64    H    0.52636973    0.35652986    0.83620028    0.11620000
opls_146-65    H    0.32620993    0.55128999    0.92667995    0.12120000
opls_146-66    H    0.22702017    0.48090996    0.76900009    0.11280000
opls_144-67    H    0.19185987    0.36606003    0.60150042    0.10660000
opls_146-68    H    0.78753987    0.07340971    0.67574996    0.11750000
opls_146-69    H    0.85652986    0.97363027    0.83620028    0.11620000
opls_146-70    H    0.05128999    0.17379007    0.92667995    0.12120000
opls_146-71    H    0.98090996    0.27297983    0.76900009    0.11280000
opls_144-72    H    0.86606003    0.30814013    0.60150042    0.10650000
opls_146-73    H    0.21246013    0.92659029    0.67574996    0.11750000
opls_146-74    H    0.14347014    0.02636973    0.83620028    0.11620000
opls_146-75    H    0.94871001    0.82620993    0.92667995    0.12120000
opls_146-76    H    0.01909004    0.72702017    0.76900009    0.11280000
opls_144-77    H    0.13393997    0.69185987    0.60150042    0.10660000
opls_146-78    H    0.92659029    0.78753987    0.32425004    0.11740000
opls_146-79    H    0.02636973    0.85652986    0.16379972    0.11620000
opls_146-80    H    0.82620993    0.05128999    0.07332005    0.12120000
opls_146-81    H    0.72702017    0.98090996    0.23099991    0.11280000
opls_144-82    H    0.69185987    0.86606003    0.39849958    0.10650000
opls_146-83    H    0.07340971    0.21246013    0.32425004    0.11750000
opls_146-84    H    0.97363027    0.14347014    0.16379972    0.11620000
opls_146-85    H    0.17379007    0.94871001    0.07332005    0.12120000
opls_146-86    H    0.27297983    0.01909004    0.23099991    0.11280000
opls_144-87    H    0.30814013    0.13393997    0.39849958    0.10650000
opls_146-88    H    0.71246013    0.42659029    0.32425004    0.11740000
opls_146-89    H    0.64347014    0.52636973    0.16379972    0.11620000
opls_146-90    H    0.44871001    0.32620993    0.07332005    0.12120000
opls_146-91    H    0.51909004    0.22702017    0.23099991    0.11280000
opls_144-92    H    0.63393997    0.19185987    0.39849958    0.10650000
opls_146-93    H    0.28753987    0.57340971    0.32425004    0.11740000
opls_146-94    H    0.35652986    0.47363027    0.16379972    0.11620000
opls_146-95    H    0.55128999    0.67379007    0.07332005    0.12120000
opls_146-96    H    0.48090996    0.77297983    0.23099991    0.11280000
opls_144-97    H    0.36606003    0.80814013    0.39849958    0.10650000
opls_750-98    N    0.72058969    0.73120018    0.54597001    -0.19150000
opls_750-99    N    0.27941031    0.26879982    0.54597001    -0.19140000
opls_750-100    N    0.76879982    0.22058969    0.54597001    -0.19150000
opls_750-101    N    0.23120018    0.77941031    0.54597001    -0.19150000
opls_750-102    N    0.77941031    0.76879982    0.45402999    -0.19150000
opls_750-103    N    0.22058969    0.23120018    0.45402999    -0.19150000
opls_750-104    N    0.73120018    0.27941031    0.45402999    -0.19150000
opls_750-105    N    0.26879982    0.72058969    0.45402999    -0.19150000
