#======================================================================
# Crystal Data Generated By AuToFF
#----------------------------------------------------------------------

data_AuToFF_phase_1

_cell_length_a                         35.2200
_cell_length_b                         35.2200
_cell_length_c                         3.6300
_cell_angle_alpha                      90.00
_cell_angle_beta                       90.00
_cell_angle_gamma                      120.00
_symmetry_space_group_name_H-M_alt     'P 1'
_symmetry_space_group_IT_number        1

loop_
_space_group_symop_operation_xyz
   'x, y, z'

loop_
   _atom_site_label
   _atom_site_type_symbol
   _atom_site_fract_x
   _atom_site_fract_y
   _atom_site_fract_z
   _atom_site_charge
opls_140-0    H    0.12035004    0.50586022    0.78112121    0.15870000
opls_140-1    H    0.03491992    0.43780009    0.22495868    0.15820000
opls_140-2    H    0.87965012    0.49414011    0.21887879    0.15870000
opls_140-3    H    0.96508024    0.56220024    0.77504132    0.15830000
opls_144-4    H    0.82891008    0.35505014    0.00000000    0.11640000
MOF2_H_-5    H    0.94092990    0.41642993    0.00000000    0.28660000
opls_570-6    H    0.25417997    0.69930997    0.00000000    0.23910000
opls_140-7    H    0.09879011    0.46045019    0.00000000    0.09540000
opls_140-8    H    0.99767005    0.43688013    0.00000000    0.15730000
opls_140-9    H    0.49413992    0.61448995    0.78112121    0.15840000
opls_140-10    H    0.56219995    0.59711994    0.22495868    0.15820000
opls_140-11    H    0.50586008    0.38551005    0.21887879    0.15850000
opls_140-12    H    0.43780005    0.40288006    0.77504132    0.15820000
opls_144-13    H    0.64494991    0.47386006    0.00000000    0.11650000
MOF2_H_-14    H    0.58357000    0.52450001    0.00000000    0.28660000
opls_570-15    H    0.30069001    0.55487009    0.00000000    0.23910000
opls_140-16    H    0.53955015    0.63835016    0.00000000    0.09850000
opls_140-17    H    0.56311994    0.56079014    0.00000000    0.15730000
opls_140-18    H    0.38551020    0.87965015    0.78112121    0.15860000
opls_140-19    H    0.40288002    0.96508030    0.22495868    0.15820000
opls_140-20    H    0.61448996    0.12035017    0.21887879    0.15860000
opls_140-21    H    0.59712015    0.03492003    0.77504132    0.15820000
opls_144-22    H    0.52614018    0.17109012    0.00000000    0.11640000
MOF2_H_-23    H    0.47550010    0.05907006    0.00000000    0.28660000
opls_570-24    H    0.44513018    0.74582028    0.00000000    0.23910000
opls_140-25    H    0.36164993    0.90121014    0.00000000    0.09800000
opls_140-26    H    0.43920989    0.00233006    0.00000000    0.15730000
opls_140-27    H    0.87965012    0.49414011    0.78112121    0.15870000
opls_140-28    H    0.96508024    0.56220024    0.22495868    0.15820000
opls_140-29    H    0.12035004    0.50586022    0.21887879    0.15870000
opls_140-30    H    0.03491992    0.43780009    0.77504132    0.15820000
opls_144-31    H    0.17109008    0.64495018    0.00000000    0.11640000
MOF2_H_-32    H    0.05907010    0.58357007    0.00000000    0.28660000
opls_570-33    H    0.74582003    0.30069003    0.00000000    0.23910000
opls_140-34    H    0.90121005    0.53955014    0.00000000    0.09540000
opls_140-35    H    0.00233012    0.56312020    0.00000000    0.15730000
opls_140-36    H    0.50586008    0.38551005    0.78112121    0.15840000
opls_140-37    H    0.43780005    0.40288006    0.22495868    0.15820000
opls_140-38    H    0.49413992    0.61448995    0.21887879    0.15840000
opls_140-39    H    0.56219995    0.59711994    0.77504132    0.15820000
opls_144-40    H    0.35505009    0.52613994    0.00000000    0.11640000
MOF2_H_-41    H    0.41643000    0.47549999    0.00000000    0.28660000
opls_570-42    H    0.69930999    0.44512991    0.00000000    0.23910000
opls_140-43    H    0.46045001    0.36165017    0.00000000    0.09850000
opls_140-44    H    0.43688022    0.43921019    0.00000000    0.15730000
opls_140-45    H    0.61448996    0.12035017    0.78112121    0.15860000
opls_140-46    H    0.59712015    0.03492003    0.22495868    0.15820000
opls_140-47    H    0.38551020    0.87965015    0.21887879    0.15860000
opls_140-48    H    0.40288002    0.96508030    0.77504132    0.15820000
opls_144-49    H    0.47385999    0.82891020    0.00000000    0.11640000
MOF2_H_-50    H    0.52450006    0.94093027    0.00000000    0.28660000
opls_570-51    H    0.55486998    0.25418005    0.00000000    0.23910000
opls_140-52    H    0.63835007    0.09878986    0.00000000    0.09800000
opls_140-53    H    0.56079011    0.99766994    0.00000000    0.15730000
opls_142-54    C    0.82242008    0.38030012    0.00000000    0.07430000
opls_141-55    C    0.90069022    0.44196022    0.00000000    0.24540000
opls_139-56    C    0.93857991    0.49153006    0.00000000    0.23740000
opls_567-57    C    0.22122002    0.62916009    0.00000000    -0.03000000
opls_567-58    C    0.29070004    0.63004005    0.00000000    -0.03160000
opls_700-59    C    0.29670019    0.67247022    0.00000000    -0.00170000
opls_716-60    C    0.25693021    0.67175026    0.00000000    -0.16940000
opls_135-61    C    0.09999008    0.49287000    0.00000000    -0.46070000
opls_135-62    C    0.03276989    0.45396000    0.00000000    -0.46290000
opls_142-63    C    0.61970009    0.44212022    0.00000000    0.07430000
opls_141-64    C    0.55804013    0.45874010    0.00000000    0.24550000
opls_139-65    C    0.50847002    0.44703999    0.00000000    0.23750000
opls_567-66    C    0.37084014    0.59206017    0.00000000    -0.03000000
opls_567-67    C    0.36996001    0.66065995    0.00000000    -0.03160000
opls_700-68    C    0.32753018    0.62423016    0.00000000    -0.00170000
opls_716-69    C    0.32825022    0.58518016    0.00000000    -0.16940000
opls_135-70    C    0.50712994    0.60710997    0.00000000    -0.46080000
opls_135-71    C    0.54603985    0.57880996    0.00000000    -0.46290000
opls_142-72    C    0.55788000    0.17757999    0.00000000    0.07430000
opls_141-73    C    0.54126014    0.09931016    0.00000000    0.24540000
opls_139-74    C    0.55295991    0.06142011    0.00000000    0.23740000
opls_567-75    C    0.40794000    0.77878006    0.00000000    -0.03000000
opls_567-76    C    0.33933995    0.70930000    0.00000000    -0.03160000
opls_700-77    C    0.37577008    0.70329995    0.00000000    -0.00170000
opls_716-78    C    0.41482018    0.74307024    0.00000000    -0.16940000
opls_135-79    C    0.39289011    0.90001020    0.00000000    -0.46070000
opls_135-80    C    0.42118998    0.96723004    0.00000000    -0.46280000
opls_142-81    C    0.17758008    0.61970020    0.00000000    0.07440000
opls_141-82    C    0.09930994    0.55804010    0.00000000    0.24540000
opls_139-83    C    0.06142009    0.50846994    0.00000000    0.23750000
opls_567-84    C    0.77877998    0.37083991    0.00000000    -0.03000000
opls_567-85    C    0.70929996    0.36995995    0.00000000    -0.03160000
opls_700-86    C    0.70329998    0.32753010    0.00000000    -0.00170000
opls_716-87    C    0.74306995    0.32825007    0.00000000    -0.16940000
opls_135-88    C    0.90000992    0.50713000    0.00000000    -0.46080000
opls_135-89    C    0.96723011    0.54604000    0.00000000    -0.46280000
opls_142-90    C    0.38030008    0.55788011    0.00000000    0.07430000
opls_141-91    C    0.44196004    0.54126022    0.00000000    0.24540000
opls_139-92    C    0.49152998    0.55296001    0.00000000    0.23740000
opls_567-93    C    0.62916003    0.40794016    0.00000000    -0.03000000
opls_567-94    C    0.63003999    0.33934005    0.00000000    -0.03160000
opls_700-95    C    0.67246998    0.37577017    0.00000000    -0.00170000
opls_716-96    C    0.67174995    0.41482017    0.00000000    -0.16940000
opls_135-97    C    0.49287006    0.39289003    0.00000000    -0.46070000
opls_135-98    C    0.45396015    0.42119004    0.00000000    -0.46290000
opls_142-99    C    0.44212000    0.82242001    0.00000000    0.07430000
opls_141-100    C    0.45874003    0.90069016    0.00000000    0.24540000
opls_139-101    C    0.44703997    0.93858022    0.00000000    0.23740000
opls_567-102    C    0.59206000    0.22121994    0.00000000    -0.03000000
opls_567-103    C    0.66066005    0.29070000    0.00000000    -0.03160000
opls_700-104    C    0.62422992    0.29670005    0.00000000    -0.00170000
opls_716-105    C    0.58517998    0.25693009    0.00000000    -0.16940000
opls_135-106    C    0.60711006    0.09999013    0.00000000    -0.46070000
opls_135-107    C    0.57881002    0.03276996    0.00000000    -0.46290000
opls_750-108    N    0.85572985    0.42236998    0.00000000    -0.37310000
opls_750-109    N    0.91126007    0.41008006    0.00000000    -0.49070000
opls_750-110    N    0.97936002    0.48975015    0.00000000    -0.15800000
opls_750-111    N    0.57763020    0.43335013    0.00000000    -0.37300000
opls_750-112    N    0.58991998    0.50118011    0.00000000    -0.49060000
opls_750-113    N    0.51025008    0.48961999    0.00000000    -0.15810000
opls_750-114    N    0.56665007    0.14427005    0.00000000    -0.37300000
opls_750-115    N    0.49882011    0.08874016    0.00000000    -0.49070000
opls_750-116    N    0.51037992    0.02064003    0.00000000    -0.15810000
opls_750-117    N    0.14427015    0.57763002    0.00000000    -0.37300000
opls_750-118    N    0.08873993    0.58991994    0.00000000    -0.49060000
opls_750-119    N    0.02063995    0.51026002    0.00000000    -0.15810000
opls_750-120    N    0.42236996    0.56665020    0.00000000    -0.37250000
opls_750-121    N    0.41008018    0.49882022    0.00000000    -0.49060000
opls_750-122    N    0.48974992    0.51038001    0.00000000    -0.15810000
opls_750-123    N    0.43335009    0.85573028    0.00000000    -0.37310000
opls_750-124    N    0.50118006    0.91126017    0.00000000    -0.49060000
opls_750-125    N    0.48962024    0.97936030    0.00000000    -0.15800000
opls_633-126    S    0.23617017    0.58887015    0.00000000    0.09050000
opls_633-127    S    0.41113024    0.64730024    0.00000000    0.09050000
opls_633-128    S    0.35270020    0.76383026    0.00000000    0.09050000
opls_633-129    S    0.76382999    0.41113017    0.00000000    0.09050000
opls_633-130    S    0.58886992    0.35270009    0.00000000    0.09050000
opls_633-131    S    0.64729997    0.23617007    0.00000000    0.09050000
