#======================================================================
# Crystal Data Generated By AuToFF
#----------------------------------------------------------------------

data_AuToFF_phase_1

_cell_length_a                         30.1062
_cell_length_b                         30.1062
_cell_length_c                         3.4475
_cell_angle_alpha                      90.00
_cell_angle_beta                       90.00
_cell_angle_gamma                      120.00
_symmetry_space_group_name_H-M_alt     'P 1'
_symmetry_space_group_IT_number        1

loop_
_space_group_symop_operation_xyz
   'x, y, z'

loop_
   _atom_site_label
   _atom_site_type_symbol
   _atom_site_fract_x
   _atom_site_fract_y
   _atom_site_fract_z
   _atom_site_charge
opls_700-0    C    0.13630994    0.59063013    0.50000000    0.06130000
opls_523-1    C    0.10772998    0.61577019    0.50000000    -0.10830000
opls_522-2    C    0.05423996    0.58792999    0.50000000    -0.15500000
opls_521-3    C    0.02869000    0.53402003    0.50000000    0.18350000
opls_521-4    C    0.10932984    0.53666992    0.50000000    0.08750000
opls_521-5    C    0.97189015    0.50130002    0.50000000    0.18350000
opls_521-6    C    0.90008007    0.41623988    0.50000000    0.08960000
opls_700-7    C    0.86537991    0.43444012    0.50000000    0.06160000
opls_523-8    C    0.88549980    0.48785992    0.50000000    -0.10830000
opls_522-9    C    0.93844018    0.52122006    0.50000000    -0.15770000
opls_142-10    C    0.19321016    0.62225014    0.50000000    -0.12190000
opls_142-11    C    0.22516015    0.60330008    0.50000000    -0.19970000
opls_642-12    C    0.28134017    0.63659003    0.50000000    0.35750000
opls_142-13    C    0.80956997    0.39647018    0.50000000    -0.15360000
opls_142-14    C    0.77225990    0.40849002    0.50000000    -0.19970000
opls_642-15    C    0.71748020    0.36911018    0.50000000    0.35750000
opls_700-16    C    0.40937007    0.54568010    0.50000000    0.06130000
opls_523-17    C    0.38422992    0.49195999    0.50000000    -0.10830000
opls_522-18    C    0.41207008    0.46631020    0.50000000    -0.15500000
opls_521-19    C    0.46598005    0.49467010    0.50000000    0.18350000
opls_521-20    C    0.46333009    0.57266002    0.50000000    0.08750000
opls_521-21    C    0.49869996    0.47059015    0.50000000    0.18350000
opls_521-22    C    0.58375989    0.48384001    0.50000000    0.08960000
opls_700-23    C    0.56555997    0.43093991    0.50000000    0.06160000
opls_523-24    C    0.51213984    0.39763999    0.50000000    -0.10830000
opls_522-25    C    0.47878004    0.41722021    0.50000000    -0.15770000
opls_142-26    C    0.37775011    0.57096016    0.50000000    -0.12190000
opls_142-27    C    0.39670008    0.62186008    0.50000000    -0.19970000
opls_642-28    C    0.36341021    0.64475028    0.50000000    0.35750000
opls_142-29    C    0.60353012    0.41310020    0.50000000    -0.15360000
opls_142-30    C    0.59150999    0.36377012    0.50000000    -0.19970000
opls_642-31    C    0.63088999    0.34837012    0.50000000    0.35750000
opls_700-32    C    0.45432018    0.86369015    0.50000000    0.06130000
opls_523-33    C    0.50803996    0.89227020    0.50000000    -0.10830000
opls_522-34    C    0.53369016    0.94576019    0.50000000    -0.15500000
opls_521-35    C    0.50533014    0.97131025    0.50000000    0.18350000
opls_521-36    C    0.42734007    0.89067006    0.50000000    0.08750000
opls_521-37    C    0.52940989    0.02810983    0.50000000    0.18350000
opls_521-38    C    0.51616004    0.09992011    0.50000000    0.08960000
opls_700-39    C    0.56906012    0.13461996    0.50000000    0.06160000
opls_523-40    C    0.60236002    0.11450009    0.50000000    -0.10830000
opls_522-41    C    0.58277997    0.06156011    0.50000000    -0.15770000
opls_142-42    C    0.42903993    0.80679008    0.50000000    -0.12190000
opls_142-43    C    0.37813996    0.77484023    0.50000000    -0.19970000
opls_642-44    C    0.35525015    0.71866007    0.50000000    0.35750000
opls_142-45    C    0.58690010    0.19043000    0.50000000    -0.15360000
opls_142-46    C    0.63622978    0.22773986    0.50000000    -0.19970000
opls_642-47    C    0.65163000    0.28252009    0.50000000    0.35750000
opls_520-48    N    0.05722980    0.51041989    0.50000000    -0.27520000
opls_520-49    N    0.95143017    0.44947000    0.50000000    -0.27610000
opls_641-50    N    0.30343991    0.68852015    0.50000000    -0.41590000
opls_641-51    N    0.68167004    0.38391990    0.50000000    -0.41580000
opls_520-52    N    0.48958008    0.54681002    0.50000000    -0.27530000
opls_520-53    N    0.55052997    0.50196009    0.50000000    -0.27610000
opls_641-54    N    0.31148023    0.61492026    0.50000000    -0.41580000
opls_641-55    N    0.61608018    0.29775018    0.50000000    -0.41580000
opls_520-56    N    0.45319012    0.94277009    0.50000000    -0.27520000
opls_520-57    N    0.49803986    0.04856990    0.50000000    -0.27610000
opls_641-58    N    0.38508005    0.69655997    0.50000000    -0.41590000
opls_641-59    N    0.70225010    0.31832992    0.50000000    -0.41580000
opls_526-60    H    0.12688997    0.65727026    0.50000000    0.12140000
opls_525-61    H    0.03403993    0.60907009    0.50000000    0.10690000
opls_524-62    H    0.12876999    0.51478997    0.50000000    0.10730000
opls_524-63    H    0.88640009    0.37545014    0.50000000    0.10740000
opls_526-64    H    0.86111016    0.50460999    0.50000000    0.12490000
opls_525-65    H    0.95212010    0.56186023    0.50000000    0.12250000
opls_144-66    H    0.20952010    0.66351011    0.50000000    0.12740000
opls_144-67    H    0.21071003    0.56249998    0.50000000    0.12790000
opls_144-68    H    0.79879006    0.35631021    0.50000000    0.12380000
opls_144-69    H    0.78111008    0.44792011    0.50000000    0.12490000
opls_526-70    H    0.34273005    0.46962017    0.50000000    0.12140000
opls_525-71    H    0.39093001    0.42497007    0.50000000    0.10690000
opls_524-72    H    0.48521020    0.61398020    0.50000000    0.10730000
opls_524-73    H    0.62455011    0.51094995    0.50000000    0.12360000
opls_526-74    H    0.49539002    0.35650007    0.50000000    0.12490000
opls_525-75    H    0.43814020    0.39026025    0.50000000    0.12250000
opls_144-76    H    0.33648990    0.54600995    0.50000000    0.12740000
opls_144-77    H    0.43750002    0.64821022    0.50000000    0.12790000
opls_144-78    H    0.64368983    0.44247994    0.50000000    0.12380000
opls_144-79    H    0.55207999    0.33318989    0.50000000    0.12490000
opls_526-80    H    0.53037984    0.87310995    0.50000000    0.12140000
opls_525-81    H    0.57503025    0.96596022    0.50000000    0.10690000
opls_524-82    H    0.38602000    0.87123021    0.50000000    0.10730000
opls_524-83    H    0.48904979    0.11359992    0.50000000    0.12360000
opls_526-84    H    0.64349982    0.13888994    0.50000000    0.12490000
opls_525-85    H    0.60973989    0.04787991    0.50000000    0.12250000
opls_144-86    H    0.45398999    0.79047994    0.50000000    0.12740000
opls_144-87    H    0.35179013    0.78929019    0.50000000    0.12790000
opls_144-88    H    0.55751978    0.20120985    0.50000000    0.12380000
opls_144-89    H    0.66680993    0.21889000    0.50000000    0.12490000
