#======================================================================
# Crystal Data Generated By AuToFF
#----------------------------------------------------------------------

data_AuToFF_phase_1

_cell_length_a                         29.1310
_cell_length_b                         29.1310
_cell_length_c                         3.7030
_cell_angle_alpha                      90.00
_cell_angle_beta                       90.00
_cell_angle_gamma                      120.00
_symmetry_space_group_name_H-M_alt     'P 1'
_symmetry_space_group_IT_number        1

loop_
_space_group_symop_operation_xyz
   'x, y, z'

loop_
   _atom_site_label
   _atom_site_type_symbol
   _atom_site_fract_x
   _atom_site_fract_y
   _atom_site_fract_z
   _atom_site_charge
opls_700-0    C    0.28257993    0.14650001    0.54981907    -0.18270000
opls_166-1    C    0.29629012    0.10696011    0.49543073    0.23130000
opls_145-2    C    0.34699983    0.12012990    0.61473940    -0.25980000
opls_700-3    C    0.38561987    0.17310992    0.70954901    -0.24310000
opls_166-4    C    0.37105984    0.21206991    0.77136106    0.22440000
opls_145-5    C    0.31849004    0.19532000    0.71877937    -0.19000000
opls_182-6    C    0.40047988    0.30949981    0.90238995    0.05330000
opls_136-7    C    0.44786984    0.36584987    0.79601134    -0.20570000
opls_210-8    C    0.42952995    0.40751001    0.80230894    -0.16950000
opls_210-9    C    0.43671998    0.49973978    0.51523089    -0.12820000
opls_135-10    C    0.46881987    0.55558009    0.35031866    -0.38910000
opls_182-11    C    0.27468013    0.01590998    0.32480961    0.05270000
opls_136-12    C    0.22537997    0.96276982    0.22462868    -0.20680000
opls_210-13    C    0.23716990    0.91723980    0.16038077    -0.18160000
opls_210-14    C    0.20746973    0.81167971    0.19796921    -0.13610000
opls_135-15    C    0.16719001    0.75526980    0.32396975    -0.38920000
opls_234-16    C    0.44010011    0.18724015    0.63321901    0.44960000
opls_142-17    C    0.56271983    0.30256986    0.40008102    0.05300000
opls_700-18    C    0.61181999    0.31672982    0.21244937    0.05780000
opls_145-19    C    0.62714005    0.27889991    0.18264110    -0.09190000
opls_234-20    C    0.23047009    0.13922996    0.47305968    0.44520000
opls_142-21    C    0.10550000    0.03002990    0.64745072    -0.00620000
opls_700-22    C    0.05480994    0.01681016    0.80567108    0.06120000
opls_145-23    C    0.03920014    0.05455009    0.83466109    -0.09650000
opls_700-24    C    0.85350012    0.13607992    0.54981907    -0.18270000
opls_166-25    C    0.89303986    0.18932987    0.49543073    0.23130000
opls_145-26    C    0.87987008    0.22687002    0.61473940    -0.25990000
opls_700-27    C    0.82689001    0.21250989    0.70954901    -0.24310000
opls_166-28    C    0.78793000    0.15899000    0.77136106    0.22440000
opls_145-29    C    0.80468006    0.12317015    0.71877937    -0.19000000
opls_182-30    C    0.69050011    0.09097997    0.90238995    0.05330000
opls_136-31    C    0.63415003    0.08202015    0.79601134    -0.20570000
opls_210-32    C    0.59248977    0.02201981    0.80230894    -0.16950000
opls_210-33    C    0.50025995    0.93698002    0.51523089    -0.12820000
opls_135-34    C    0.44441989    0.91323991    0.35031866    -0.38920000
opls_182-35    C    0.98408998    0.25877005    0.32480961    0.05270000
opls_136-36    C    0.03722986    0.26260980    0.22462868    -0.20680000
opls_210-37    C    0.08275987    0.31992981    0.16038077    -0.18170000
opls_210-38    C    0.18831987    0.39578979    0.19796921    -0.13610000
opls_135-39    C    0.24472992    0.41191976    0.32396975    -0.38920000
opls_234-40    C    0.81276002    0.25286000    0.63321901    0.44950000
opls_142-41    C    0.69742998    0.26014986    0.40008102    0.05300000
opls_700-42    C    0.68326990    0.29509014    0.21244937    0.05780000
opls_145-43    C    0.72109975    0.34823981    0.18264110    -0.09190000
opls_234-44    C    0.86076984    0.09124000    0.47305968    0.44520000
opls_142-45    C    0.96997005    0.07546994    0.64745072    -0.00620000
opls_700-46    C    0.98319001    0.03799995    0.80567108    0.06110000
opls_145-47    C    0.94544971    0.98464971    0.83466109    -0.09650000
opls_700-48    C    0.86391995    0.71742008    0.54981907    -0.18270000
opls_166-49    C    0.81067002    0.70371002    0.49543073    0.23130000
opls_145-50    C    0.77313009    0.65300008    0.61473940    -0.25990000
opls_700-51    C    0.78748992    0.61437979    0.70954901    -0.24310000
opls_166-52    C    0.84101016    0.62894009    0.77136106    0.22440000
opls_145-53    C    0.87682990    0.68150985    0.71877937    -0.19000000
opls_182-54    C    0.90901981    0.59951982    0.90238995    0.05330000
opls_136-55    C    0.91798013    0.55212998    0.79601134    -0.20570000
opls_210-56    C    0.97797973    0.57046978    0.80230894    -0.16950000
opls_210-57    C    0.06301988    0.56327981    0.51523089    -0.12820000
opls_135-58    C    0.08675989    0.53118000    0.35031866    -0.38920000
opls_182-59    C    0.74122989    0.72531997    0.32480961    0.05270000
opls_136-60    C    0.73738997    0.77461998    0.22462868    -0.20680000
opls_210-61    C    0.68007004    0.76282999    0.16038077    -0.18160000
opls_210-62    C    0.60421000    0.79252971    0.19796921    -0.13610000
opls_135-63    C    0.58807987    0.83281004    0.32396975    -0.38920000
opls_234-64    C    0.74713986    0.55989986    0.63321901    0.44960000
opls_142-65    C    0.73984999    0.43727988    0.40008102    0.05300000
opls_700-66    C    0.70491011    0.38818005    0.21244937    0.05780000
opls_145-67    C    0.65176000    0.37285988    0.18264110    -0.09180000
opls_234-68    C    0.90876008    0.76953004    0.47305968    0.44530000
opls_142-69    C    0.92452976    0.89449976    0.64745072    -0.00620000
opls_700-70    C    0.96200004    0.94518988    0.80567108    0.06110000
opls_145-71    C    0.01534996    0.96079980    0.83466109    -0.09650000
opls_179-72    O    0.40948993    0.26799980    0.77293006    -0.25500000
opls_179-73    O    0.26178985    0.05771996    0.31207940    -0.25490000
opls_236-74    O    0.44729005    0.15378987    0.48489063    -0.39720000
opls_236-75    O    0.22309989    0.17577995    0.55072914    -0.40240000
opls_179-76    O    0.73200009    0.14149013    0.77293006    -0.25500000
opls_179-77    O    0.94228016    0.20407013    0.31207940    -0.25490000
opls_236-78    O    0.84620995    0.29349985    0.48489063    -0.39730000
opls_236-79    O    0.82421993    0.04732008    0.55072914    -0.40220000
opls_179-80    O    0.85850998    0.59051006    0.77293006    -0.25500000
opls_179-81    O    0.79592999    0.73820992    0.31207940    -0.25480000
opls_236-82    O    0.70649981    0.55270989    0.48489063    -0.39720000
opls_236-83    O    0.95267984    0.77689997    0.55072914    -0.40230000
opls_202-84    S    0.48107006    0.47429007    0.65301107    -0.03670000
opls_202-85    S    0.17754998    0.85350990    0.23755874    0.00730000
opls_202-86    S    0.52570992    0.00678011    0.65301107    -0.03670000
opls_202-87    S    0.14649010    0.32403989    0.23755874    0.00730000
opls_202-88    S    0.99322001    0.51892982    0.65301107    -0.03670000
opls_202-89    S    0.67596007    0.82244981    0.23755874    0.00730000
opls_238-90    N    0.48127008    0.23810983    0.63958952    -0.25070000
opls_750-91    N    0.52597004    0.25346012    0.42526870    -0.19850000
opls_238-92    N    0.18724014    0.09110998    0.40267081    -0.25720000
opls_750-93    N    0.13906981    0.07844994    0.56075884    -0.14330000
opls_238-94    N    0.76189004    0.24316013    0.63958952    -0.25070000
opls_750-95    N    0.74653984    0.27250984    0.42526870    -0.19850000
opls_238-96    N    0.90888998    0.09613016    0.40267081    -0.25720000
opls_750-97    N    0.92154986    0.06061989    0.56075884    -0.14340000
opls_238-98    N    0.75683987    0.51873004    0.63958952    -0.25060000
opls_750-99    N    0.72749012    0.47403004    0.42526870    -0.19840000
opls_238-100    N    0.90386989    0.81275985    0.40267081    -0.25720000
opls_750-101    N    0.93937979    0.86092978    0.56075884    -0.14340000
opls_146-102    H    0.35941982    0.09097997    0.58345126    0.11690000
opls_146-103    H    0.30653985    0.22290977    0.79476911    0.24830000
opls_185-104    H    0.39701991    0.30606001    0.19732109    0.07810000
opls_185-105    H    0.36260001    0.30555977    0.79923035    0.05750000
opls_140-106    H    0.46307009    0.36474991    0.52321091    0.11120000
opls_140-107    H    0.48466007    0.38012993    0.96914124    0.10150000
opls_140-108    H    0.41844019    0.41031005    0.08152039    0.09120000
opls_140-109    H    0.39211973    0.39416978    0.64887929    0.11700000
opls_140-110    H    0.41032994    0.49826999    0.73890089    0.12190000
opls_140-111    H    0.40883993    0.47357975    0.30462868    0.09600000
opls_140-112    H    0.49865013    0.55484995    0.16613016    0.11320000
opls_140-113    H    0.48933000    0.58518982    0.56493114    0.11320000
opls_140-114    H    0.44168991    0.56519988    0.19749932    0.10930000
opls_185-115    H    0.28865002    0.01215981    0.59513908    0.06140000
opls_185-116    H    0.30843986    0.02559002    0.14187956    0.05910000
opls_140-117    H    0.20768980    0.96877977    0.98035107    0.10280000
opls_140-118    H    0.19342980    0.95114988    0.42988118    0.12620000
opls_140-119    H    0.26985981    0.91981985    0.33011882    0.10760000
opls_140-120    H    0.24945001    0.91752004    0.87891979    0.08930000
opls_140-121    H    0.24556997    0.82839990    0.35261950    0.11120000
opls_140-122    H    0.21862987    0.81083978    0.91472050    0.08250000
opls_140-123    H    0.18886985    0.73704971    0.45604915    0.09940000
opls_140-124    H    0.13864973    0.72906974    0.10944910    0.10830000
opls_140-125    H    0.13970013    0.75625996    0.53587902    0.09110000
opls_910-126    H    0.48076983    0.26543997    0.81520119    0.23930000
opls_144-127    H    0.55982984    0.33298980    0.54577910    0.10250000
opls_146-128    H    0.59765002    0.23761990    0.21115042    0.11120000
opls_910-129    H    0.19066006    0.06135993    0.27339995    0.26350000
opls_144-130    H    0.11416004    0.99833004    0.59810964    0.10550000
opls_146-131    H    0.06754992    0.09636997    0.82304888    0.10010000
opls_146-132    H    0.90901994    0.26843979    0.58345126    0.11690000
opls_146-133    H    0.77709007    0.08362986    0.79476911    0.24850000
opls_185-134    H    0.69394014    0.09096015    0.19732109    0.07810000
opls_185-135    H    0.69444023    0.05704016    0.79923035    0.05750000
opls_140-136    H    0.63525016    0.09832017    0.52321091    0.11130000
opls_140-137    H    0.61986990    0.10452989    0.96914124    0.10150000
opls_140-138    H    0.58969003    0.00813019    0.08152039    0.09130000
opls_140-139    H    0.60582985    0.99794991    0.64887929    0.11700000
opls_140-140    H    0.50173005    0.91205988    0.73890089    0.12190000
opls_140-141    H    0.52641981    0.93525972    0.30462868    0.09600000
opls_140-142    H    0.44515003    0.94379977    0.16613016    0.11320000
opls_140-143    H    0.41480992    0.90413977    0.56493114    0.11320000
opls_140-144    H    0.43479975    0.87648975    0.19749932    0.10930000
opls_185-145    H    0.98783989    0.27648991    0.59513908    0.06140000
opls_185-146    H    0.97441007    0.28284986    0.14187956    0.05910000
opls_140-147    H    0.03122019    0.23891012    0.98035107    0.10270000
opls_140-148    H    0.04884988    0.24227977    0.42988118    0.12630000
opls_140-149    H    0.08018003    0.35003978    0.33011882    0.10760000
opls_140-150    H    0.08247999    0.33192988    0.87891979    0.08930000
opls_140-151    H    0.17159992    0.41716984    0.35261950    0.11120000
opls_140-152    H    0.18915977    0.40778986    0.91472050    0.08250000
opls_140-153    H    0.26294991    0.45181997    0.45604915    0.09940000
opls_140-154    H    0.27092981    0.40957992    0.10944910    0.10830000
opls_140-155    H    0.24373990    0.38344011    0.53587902    0.09110000
opls_910-156    H    0.73456014    0.21533015    0.81520119    0.23930000
opls_144-157    H    0.66700994    0.22683990    0.54577910    0.10250000
opls_146-158    H    0.76237973    0.36002979    0.21115042    0.11130000
opls_910-159    H    0.93863981    0.12929980    0.27339995    0.26350000
opls_144-160    H    0.00167008    0.11582995    0.59810964    0.10550000
opls_146-161    H    0.90362982    0.97117986    0.82304888    0.10010000
opls_146-162    H    0.73156005    0.64057984    0.58345126    0.11690000
opls_146-163    H    0.91636989    0.69345997    0.79476911    0.24840000
opls_185-164    H    0.90903995    0.60297984    0.19732109    0.07810000
opls_185-165    H    0.94296010    0.63740007    0.79923035    0.05750000
opls_140-166    H    0.90168009    0.53692992    0.52321091    0.11120000
opls_140-167    H    0.89546983    0.51533978    0.96914124    0.10150000
opls_140-168    H    0.99186978    0.58155976    0.08152039    0.09120000
opls_140-169    H    0.00204987    0.60787992    0.64887929    0.11700000
opls_140-170    H    0.08793981    0.58966973    0.73890089    0.12190000
opls_140-171    H    0.06473987    0.59115973    0.30462868    0.09600000
opls_140-172    H    0.05619998    0.50134988    0.16613016    0.11330000
opls_140-173    H    0.09585987    0.51067001    0.56493114    0.11320000
opls_140-174    H    0.12351014    0.55830997    0.19749932    0.10930000
opls_185-175    H    0.72350989    0.71134988    0.59513908    0.06140000
opls_185-176    H    0.71714988    0.69155972    0.14187956    0.05910000
opls_140-177    H    0.76108981    0.79230971    0.98035107    0.10270000
opls_140-178    H    0.75772011    0.80656995    0.42988118    0.12630000
opls_140-179    H    0.64995997    0.73013997    0.33011882    0.10760000
opls_140-180    H    0.66807000    0.75055008    0.87891979    0.08930000
opls_140-181    H    0.58282991    0.75442987    0.35261950    0.11120000
opls_140-182    H    0.59220982    0.78136997    0.91472050    0.08250000
opls_140-183    H    0.54818005    0.81112993    0.45604915    0.09940000
opls_140-184    H    0.59041992    0.86134994    0.10944910    0.10840000
opls_140-185    H    0.61655997    0.86029993    0.53587902    0.09110000
opls_910-186    H    0.78467003    0.51922988    0.81520119    0.23930000
opls_144-187    H    0.77316003    0.44016991    0.54577910    0.10260000
opls_146-188    H    0.63997005    0.40234991    0.21115042    0.11120000
opls_910-189    H    0.87069994    0.80933987    0.27339995    0.26350000
opls_144-190    H    0.88416987    0.88584001    0.59810964    0.10550000
opls_146-191    H    0.02881972    0.93244977    0.82304888    0.10010000
