#======================================================================
# Crystal Data Generated By AuToFF
#----------------------------------------------------------------------

data_AuToFF_phase_1

_cell_length_a                         23.1224
_cell_length_b                         23.1224
_cell_length_c                         5.3815
_cell_angle_alpha                      90.00
_cell_angle_beta                       90.00
_cell_angle_gamma                      120.00
_symmetry_space_group_name_H-M_alt     'P 1'
_symmetry_space_group_IT_number        1

loop_
_space_group_symop_operation_xyz
   'x, y, z'

loop_
   _atom_site_label
   _atom_site_type_symbol
   _atom_site_fract_x
   _atom_site_fract_y
   _atom_site_fract_z
   _atom_site_charge
opls_146-0    H    0.38953984    0.44067968    0.50000000    0.08770000
opls_144-1    H    0.49150988    0.67300005    0.50000000    0.09250000
opls_146-2    H    0.56260011    0.63735987    0.50000000    0.10550000
opls_910-3    H    0.38149980    0.53196994    0.50000000    0.28830000
opls_144-4    H    0.52347987    0.35274979    0.50000000    0.08170000
opls_146-5    H    0.46093973    0.39091986    0.50000000    0.10530000
opls_910-6    H    0.64345973    0.48815981    0.50000000    0.28550000
opls_796-7    H    0.75182964    0.61355963    0.50000000    0.38730000
opls_146-8    H    0.55931992    0.94885988    0.50000000    0.08770000
opls_144-9    H    0.32699995    0.81850964    0.50000000    0.09250000
opls_146-10    H    0.36263985    0.92523992    0.50000000    0.10550000
opls_910-11    H    0.46802997    0.84953000    0.50000000    0.28830000
opls_144-12    H    0.64725006    0.17073009    0.50000000    0.08170000
opls_146-13    H    0.60908012    0.07001991    0.50000000    0.10530000
opls_910-14    H    0.51183982    0.15530006    0.50000000    0.28550000
opls_796-15    H    0.38643986    0.13827000    0.50000000    0.38730000
opls_146-16    H    0.05114000    0.61045994    0.50000000    0.08770000
opls_144-17    H    0.18148992    0.50848981    0.50000000    0.09250000
opls_146-18    H    0.07475978    0.43739972    0.50000000    0.10550000
opls_910-19    H    0.15047023    0.61850005    0.50000000    0.28830000
opls_144-20    H    0.82927008    0.47652012    0.50000000    0.08170000
opls_146-21    H    0.92997990    0.53905973    0.50000000    0.10530000
opls_910-22    H    0.84470002    0.35654013    0.50000000    0.28550000
opls_796-23    H    0.86172982    0.24816988    0.50000000    0.38730000
opls_280-24    C    0.31605005    0.59831987    0.50000000    0.32970000
opls_700-25    C    0.38814996    0.64837982    0.50000000    -0.12250000
opls_142-26    C    0.43890985    0.63406991    0.50000000    0.08230000
opls_916-27    C    0.47147988    0.54322011    0.50000000    0.21880000
opls_145-28    C    0.44419991    0.47383991    0.50000000    -0.17700000
opls_145-29    C    0.54073996    0.58267011    0.50000000    -0.19540000
opls_280-30    C    0.69436990    0.40361975    0.50000000    0.31220000
opls_700-31    C    0.62085993    0.36308009    0.50000000    -0.11750000
opls_142-32    C    0.57733982    0.38712004    0.50000000    -0.02350000
opls_916-33    C    0.55515007    0.48526986    0.50000000    0.20640000
opls_145-34    C    0.58356019    0.55581013    0.50000000    -0.18760000
opls_145-35    C    0.48540993    0.44581986    0.50000000    -0.18250000
opls_280-36    C    0.40168022    0.71773005    0.50000000    0.32970000
opls_700-37    C    0.35162000    0.73976995    0.50000000    -0.12250000
opls_142-38    C    0.36592982    0.80483995    0.50000000    0.08230000
opls_916-39    C    0.45677984    0.92825970    0.50000000    0.21880000
opls_145-40    C    0.52616015    0.97035994    0.50000000    -0.17700000
opls_145-41    C    0.41732968    0.95806955    0.50000000    -0.19540000
opls_280-42    C    0.59638010    0.29075002    0.50000000    0.31220000
opls_700-43    C    0.63691991    0.25778006    0.50000000    -0.11750000
opls_142-44    C    0.61288028    0.19022012    0.50000000    -0.02350000
opls_916-45    C    0.51473020    0.06988008    0.50000000    0.20640000
opls_145-46    C    0.44419013    0.02774988    0.50000000    -0.18760000
opls_145-47    C    0.55417975    0.03958982    0.50000000    -0.18250000
opls_280-48    C    0.28227017    0.68395008    0.50000000    0.32970000
opls_700-49    C    0.26022978    0.61184973    0.50000000    -0.12250000
opls_142-50    C    0.19515965    0.56108964    0.50000000    0.08230000
opls_916-51    C    0.07174003    0.52851969    0.50000000    0.21880000
opls_145-52    C    0.02963969    0.55579964    0.50000000    -0.17700000
opls_145-53    C    0.04193011    0.45925984    0.50000000    -0.19540000
opls_280-54    C    0.70924975    0.30562973    0.50000000    0.31220000
opls_700-55    C    0.74221974    0.37913985    0.50000000    -0.11750000
opls_142-56    C    0.80977991    0.42265984    0.50000000    -0.02350000
opls_916-57    C    0.93012016    0.44485006    0.50000000    0.20640000
opls_145-58    C    0.97225011    0.41643999    0.50000000    -0.18760000
opls_145-59    C    0.96041007    0.51458981    0.50000000    -0.18250000
opls_238-60    N    0.42879015    0.57054002    0.50000000    -0.23230000
opls_238-61    N    0.59423989    0.45317982    0.50000000    -0.22410000
opls_238-62    N    0.42946006    0.85824978    0.50000000    -0.23230000
opls_238-63    N    0.54682012    0.14106007    0.50000000    -0.22410000
opls_238-64    N    0.14174997    0.57120970    0.50000000    -0.23230000
opls_238-65    N    0.85893998    0.40576012    0.50000000    -0.22400000
opls_494-66    O    0.68865014    0.64704995    0.72692000    -0.47940000
opls_494-67    O    0.35295014    0.04159985    0.72692000    -0.47940000
opls_494-68    O    0.95839991    0.31134970    0.72692000    -0.47930000
opls_494-69    O    0.68865014    0.64704995    0.27308000    -0.47940000
opls_494-70    O    0.35295014    0.04159985    0.27308000    -0.47940000
opls_494-71    O    0.95839991    0.31134970    0.27308000    -0.47940000
opls_281-72    O    0.30027017    0.53955012    0.50000000    -0.36080000
opls_281-73    O    0.71897985    0.46395007    0.50000000    -0.35030000
opls_154-74    O    0.70992968    0.57362972    0.50000000    -0.49080000
opls_281-75    O    0.46044972    0.76071970    0.50000000    -0.36080000
opls_281-76    O    0.53604998    0.25502994    0.50000000    -0.35040000
opls_154-77    O    0.42637013    0.13629992    0.50000000    -0.49080000
opls_281-78    O    0.23927987    0.69972968    0.50000000    -0.36080000
opls_281-79    O    0.74497017    0.28101999    0.50000000    -0.35040000
opls_154-80    O    0.86369995    0.29006986    0.50000000    -0.49080000
opls_474-81    S    0.67087974    0.61179979    0.50000000    1.03990000
opls_474-82    S    0.38819993    0.05907986    0.50000000    1.03990000
opls_474-83    S    0.94092008    0.32911985    0.50000000    1.03990000
