#======================================================================
# Crystal Data Generated By AuToFF
#----------------------------------------------------------------------

data_AuToFF_phase_1

_cell_length_a                         42.8767
_cell_length_b                         42.7907
_cell_length_c                         4.5000
_cell_angle_alpha                      90.13
_cell_angle_beta                       89.86
_cell_angle_gamma                      121.85
_symmetry_space_group_name_H-M_alt     'P 1'
_symmetry_space_group_IT_number        1

loop_
_space_group_symop_operation_xyz
   'x, y, z'

loop_
   _atom_site_label
   _atom_site_type_symbol
   _atom_site_fract_x
   _atom_site_fract_y
   _atom_site_fract_z
   _atom_site_charge
opls_916-0    C    0.56195003    0.96087986    0.57340033    0.18280000
opls_145-1    C    0.46546001    0.96809004    0.51364006    -0.14040000
opls_145-2    C    0.58241011    0.95257995    0.37817057    -0.14130000
opls_145-3    C    0.58193012    0.91979009    0.39839955    -0.14130000
opls_145-4    C    0.55948001    0.89248988    0.60715159    0.20420000
opls_145-5    C    0.53735009    0.89959990    0.79363019    -0.14040000
opls_145-6    C    0.53921008    0.93326999    0.78095014    -0.12050000
opls_234-7    C    0.58339990    0.85203991    0.45457091    0.48180000
opls_700-8    C    0.57580998    0.81496004    0.54221130    -0.02770000
opls_700-9    C    0.54721993    0.79988996    0.75285001    -0.06200000
opls_234-10    C    0.54251013    0.70756011    0.84526153    0.48830000
opls_916-11    C    0.02866010    0.59985998    0.61313161    0.21650000
opls_145-12    C    0.03402008    0.50326012    0.51554007    -0.14130000
opls_145-13    C    0.03666012    0.63125010    0.44771977    -0.14130000
opls_145-14    C    0.06919005    0.66511987    0.48731994    -0.14100000
opls_145-15    C    0.09621013    0.66933999    0.68926973    0.18870000
opls_145-16    C    0.08831996    0.63839996    0.86113049    -0.14130000
opls_145-17    C    0.05505000    0.60480993    0.82745034    -0.12070000
opls_234-18    C    0.13929009    0.73560006    0.54156018    0.48840000
opls_700-19    C    0.17750003    0.76525011    0.62226054    -0.02660000
opls_700-20    C    0.19113007    0.75098996    0.83096147    -0.06470000
opls_234-21    C    0.28782999    0.83891992    0.89360175    0.44760000
opls_916-22    C    0.39747012    0.43123008    0.61576940    0.21600000
opls_145-23    C    0.50095006    0.53290994    0.53554016    -0.14040000
opls_145-24    C    0.36684991    0.40920989    0.43215081    -0.14130000
opls_145-25    C    0.33462002    0.40970001    0.45435091    -0.14130000
opls_145-26    C    0.33165012    0.43339006    0.65454069    0.19380000
opls_145-27    C    0.36206012    0.45554012    0.84044151    -0.14040000
opls_145-28    C    0.39378008    0.45385995    0.82500144    -0.12050000
opls_234-29    C    0.26731000    0.41228001    0.48419993    0.48820000
opls_700-30    C    0.23974003    0.42258995    0.55384024    -0.02450000
opls_700-31    C    0.25518003    0.45122997    0.76428117    -0.06360000
opls_234-32    C    0.17189014    0.46330001    0.80839026    0.48340000
opls_916-33    C    0.43807014    0.03912020    0.57441144    0.21570000
opls_145-34    C    0.53452008    0.03184010    0.51386006    -0.14040000
opls_145-35    C    0.41768014    0.04738011    0.37933057    -0.14130000
opls_145-36    C    0.41817004    0.08019010    0.39949066    -0.14100000
opls_145-37    C    0.44057011    0.10755996    0.60792048    0.19380000
opls_145-38    C    0.46266016    0.10049999    0.79399020    -0.12070000
opls_145-39    C    0.46080003    0.06681010    0.78144125    -0.12050000
opls_234-40    C    0.41663997    0.14795006    0.45605092    0.48860000
opls_700-41    C    0.42423006    0.18505997    0.54352019    -0.02590000
opls_700-42    C    0.45282015    0.20022020    0.75331001    -0.06190000
opls_234-43    C    0.45750003    0.29257998    0.84572154    0.44250000
opls_916-44    C    0.97132011    0.40015998    0.61122049    0.21320000
opls_145-45    C    0.96599008    0.49675009    0.51635118    -0.14130000
opls_145-46    C    0.96328987    0.36884989    0.44381975    -0.14130000
opls_145-47    C    0.93077997    0.33495003    0.48337993    -0.14090000
opls_145-48    C    0.90378013    0.33065004    0.68708972    0.18870000
opls_145-49    C    0.91166015    0.36155015    0.86026160    -0.14130000
opls_145-50    C    0.94492001    0.39516001    0.82670145    -0.12050000
opls_234-51    C    0.86075996    0.26437004    0.53911128    0.48840000
opls_700-52    C    0.82254024    0.23470013    0.62010053    -0.02640000
opls_700-53    C    0.80888998    0.24892996    0.82994147    -0.06470000
opls_234-54    C    0.71216014    0.16100014    0.89261063    0.47870000
opls_916-55    C    0.60250998    0.56879992    0.61590052    0.18230000
opls_145-56    C    0.49902014    0.46707015    0.53521127    -0.14040000
opls_145-57    C    0.63329011    0.59089001    0.43337081    -0.14130000
opls_145-58    C    0.66551007    0.59039994    0.45577980    -0.14130000
opls_145-59    C    0.66835013    0.56666004    0.65520069    0.18250000
opls_145-60    C    0.63781008    0.54448998    0.84043040    -0.14040000
opls_145-61    C    0.60609007    0.54616003    0.82476144    -0.12050000
opls_234-62    C    0.73277016    0.58772007    0.48481993    0.48900000
opls_700-63    C    0.76031007    0.57741014    0.55426024    -0.02910000
opls_700-64    C    0.74476014    0.54877997    0.76443006    -0.06190000
opls_234-65    C    0.82801010    0.53666998    0.80829026    0.47920000
opls_916-66    C    0.03939991    0.43820992    0.57436033    0.18230000
opls_145-67    C    0.03173007    0.53465009    0.51522007    -0.14040000
opls_145-68    C    0.04771016    0.41776013    0.37879946    -0.14130000
opls_145-69    C    0.08051009    0.41835001    0.39811955    -0.14130000
opls_145-70    C    0.10780001    0.44089995    0.60619158    0.19380000
opls_145-71    C    0.10066005    0.46300006    0.79303019    -0.12070000
opls_145-72    C    0.06699005    0.46104994    0.78126125    -0.12050000
opls_234-73    C    0.14832006    0.41714001    0.45225090    0.48820000
opls_700-74    C    0.18539001    0.42484995    0.53908017    -0.02450000
opls_700-75    C    0.20040008    0.45348007    0.74954111    -0.06210000
opls_234-76    C    0.29269015    0.45844001    0.84031040    0.44250000
opls_916-77    C    0.40017001    0.97092001    0.61008049    0.21320000
opls_145-78    C    0.49689012    0.96595002    0.51392006    -0.14130000
opls_145-79    C    0.36895999    0.96290993    0.44329086    -0.14130000
opls_145-80    C    0.33509000    0.93038008    0.48269103    -0.14090000
opls_145-81    C    0.33071004    0.90332011    0.68572971    0.18870000
opls_145-82    C    0.36152018    0.91113998    0.85798159    -0.14130000
opls_145-83    C    0.39510994    0.94442990    0.82452144    -0.12050000
opls_234-84    C    0.26449011    0.86047010    0.53941129    0.48930000
opls_700-85    C    0.23471014    0.82230996    0.62128054    -0.02700000
opls_700-86    C    0.24881002    0.80851997    0.82999036    -0.06500000
opls_234-87    C    0.16059015    0.71200007    0.89579065    0.47850000
opls_916-88    C    0.56934001    0.60243997    0.61762941    0.21600000
opls_145-89    C    0.46733014    0.49942005    0.53560016    -0.14130000
opls_145-90    C    0.59153009    0.63324002    0.43559082    -0.14130000
opls_145-91    C    0.59119005    0.66560009    0.45907093    -0.14130000
opls_145-92    C    0.56751019    0.66855007    0.65912960    0.20410000
opls_145-93    C    0.54530022    0.63801014    0.84434153    -0.14040000
opls_145-94    C    0.54680997    0.60614999    0.82754146    -0.12050000
opls_234-95    C    0.58860010    0.73303001    0.48889106    0.48950000
opls_700-96    C    0.57823006    0.76061002    0.55809137    -0.05100000
opls_700-97    C    0.54964006    0.74510994    0.76870119    -0.06210000
opls_234-98    C    0.53730014    0.82837004    0.81096138    0.47920000
opls_916-99    C    0.96061001    0.56177990    0.57505144    0.18450000
opls_145-100    C    0.96827998    0.46535009    0.51557118    -0.14040000
opls_145-101    C    0.95238001    0.58214991    0.37907057    -0.14130000
opls_145-102    C    0.91956991    0.58154991    0.39813955    -0.14130000
opls_145-103    C    0.89219003    0.55904995    0.60620047    0.20610000
opls_145-104    C    0.89923000    0.53697006    0.79310130    -0.12070000
opls_145-105    C    0.93291015    0.53895017    0.78170125    -0.12050000
opls_234-106    C    0.85177003    0.58282993    0.45245090    0.48960000
opls_700-107    C    0.81466017    0.57512012    0.53929129    -0.05100000
opls_700-108    C    0.79954007    0.54648995    0.74950111    -0.06160000
opls_234-109    C    0.70721029    0.54158018    0.84052151    0.47830000
opls_916-110    C    0.59980999    0.02907000    0.60821159    0.21650000
opls_145-111    C    0.50310004    0.03397008    0.51460006    -0.14130000
opls_145-112    C    0.63100995    0.03711003    0.43995084    -0.14130000
opls_145-113    C    0.66490018    0.06962019    0.47935102    -0.14100000
opls_145-114    C    0.66928010    0.09664013    0.68368082    0.18870000
opls_145-115    C    0.63846020    0.08881012    0.85700159    -0.14130000
opls_145-116    C    0.60487018    0.05553018    0.82368144    -0.12090000
opls_234-117    C    0.73556021    0.13948017    0.53686016    0.48830000
opls_700-118    C    0.76533005    0.17764002    0.61906053    -0.02700000
opls_700-119    C    0.75120006    0.19139997    0.82892146    -0.06470000
opls_234-120    C    0.83939021    0.28793021    0.89486175    0.47860000
opls_916-121    C    0.43060004    0.39756008    0.61858942    0.21620000
opls_145-122    C    0.53265008    0.50056004    0.53518016    -0.14130000
opls_145-123    C    0.40834017    0.36663010    0.43783972    -0.14130000
opls_145-124    C    0.40872007    0.33431001    0.46139094    -0.14130000
opls_145-125    C    0.43246011    0.33149003    0.66036960    0.19380000
opls_145-126    C    0.45469997    0.36212995    0.84461042    -0.14040000
opls_145-127    C    0.45316018    0.39397003    0.82773035    -0.12050000
opls_234-128    C    0.41143015    0.26696015    0.49053996    0.48180000
opls_700-129    C    0.42180997    0.23941993    0.55946026    -0.02450000
opls_700-130    C    0.45040026    0.25501015    0.76921009    -0.06340000
opls_234-131    C    0.46272014    0.17175006    0.81130138    0.48330000
opls_916-132    C    0.53244002    0.99780001    0.53930017    0.19410000
opls_916-133    C    0.99769000    0.53243011    0.54157130    0.19420000
opls_916-134    C    0.46528021    0.46544013    0.56256028    0.19410000
opls_916-135    C    0.46753008    0.00213000    0.53984018    0.19190000
opls_916-136    C    0.00232005    0.46758013    0.54103129    0.19410000
opls_916-137    C    0.53469009    0.53455006    0.56241139    0.19070000
opls_145-138    C    0.53346015    0.76449007    0.87134165    -0.04880000
opls_145-139    C    0.59212994    0.79586990    0.43981084    -0.08560000
opls_145-140    C    0.22723007    0.77241012    0.94071085    -0.04880000
opls_145-141    C    0.19874003    0.80124013    0.51245117    -0.08460000
opls_145-142    C    0.23577021    0.46735014    0.86735052    -0.04890000
opls_145-143    C    0.20451000    0.40859005    0.43619083    -0.08560000
opls_145-144    C    0.46657017    0.23566998    0.87136165    -0.04880000
opls_145-145    C    0.40791006    0.20410994    0.44167974    -0.08570000
opls_145-146    C    0.77278028    0.22749015    0.94031085    -0.04880000
opls_145-147    C    0.80132004    0.19872012    0.50971115    -0.08460000
opls_145-148    C    0.76410998    0.53263993    0.86719052    -0.04880000
opls_145-149    C    0.79559013    0.59138012    0.43661972    -0.08560000
opls_542-150    N    0.55975012    0.85902992    0.62368055    -0.17390000
opls_542-151    N    0.13034021    0.70412012    0.71224094    -0.18200000
opls_542-152    N    0.29870007    0.43456993    0.66248072    -0.17330000
opls_542-153    N    0.44029999    0.14103002    0.62450944    -0.17410000
opls_542-154    N    0.86968022    0.29584020    0.71038982    -0.18290000
opls_542-155    N    0.70130011    0.56547013    0.66306961    -0.17250000
opls_542-156    N    0.14127002    0.44075013    0.62178943    -0.17410000
opls_542-157    N    0.29588011    0.86925007    0.70936093    -0.18290000
opls_542-158    N    0.56638000    0.70157999    0.66754074    -0.17410000
opls_542-159    N    0.85871010    0.55919008    0.62170943    -0.17250000
opls_542-160    N    0.70412017    0.13068996    0.70750981    -0.18290000
opls_542-161    N    0.43363011    0.29848017    0.66862964    -0.17570000
opls_239-162    N    0.56884003    0.56858002    0.58997151    -0.11680000
opls_239-163    N    0.43545015    0.00404996    0.56500029    -0.11680000
opls_239-164    N    0.00436009    0.43552016    0.56565140    -0.11690000
opls_239-165    N    0.43113000    0.43140998    0.59036040    -0.11680000
opls_239-166    N    0.56453003    0.99592009    0.56369139    -0.11680000
opls_239-167    N    0.99567016    0.56451009    0.56686030    -0.11680000
opls_146-168    H    0.43716993    0.94196990    0.49191108    0.04800000
opls_146-169    H    0.60001989    0.97294998    0.19708088    0.04800000
opls_146-170    H    0.59993002    0.91467002    0.24428109    0.04800000
opls_146-171    H    0.51759009    0.87778003    0.95765981    0.04800000
opls_146-172    H    0.52176000    0.93811994    0.94373975    0.04800000
opls_146-173    H    0.06189007    0.50605995    0.49493998    0.04800000
opls_146-174    H    0.01624007    0.62935003    0.27581011    0.04800000
opls_146-175    H    0.07433997    0.69009990    0.35487936    0.04800000
opls_146-176    H    0.10917020    0.64059014    0.02990013    0.04800000
opls_146-177    H    0.04947999    0.58104997    0.97865102    0.04800000
opls_146-178    H    0.50169001    0.55983014    0.51348006    0.04800000
opls_146-179    H    0.36798017    0.39030011    0.25939004    0.04800000
opls_146-180    H    0.31000986    0.39067988    0.30877915    0.04800000
opls_146-181    H    0.36102021    0.47516014    0.00618003    0.04800000
opls_146-182    H    0.41702029    0.47138015    0.98705994    0.04800000
opls_146-183    H    0.56282015    0.05796009    0.49235997    0.04800000
opls_146-184    H    0.40011008    0.02696001    0.19834977    0.04800000
opls_146-185    H    0.40022004    0.08526001    0.24550998    0.04800000
opls_146-186    H    0.48240018    0.12237013    0.95773092    0.04800000
opls_146-187    H    0.47823001    0.06201998    0.94385086    0.04800000
opls_146-188    H    0.93812010    0.49394001    0.49635998    0.04800000
opls_146-189    H    0.98365992    0.37082998    0.27019009    0.04800000
opls_146-190    H    0.92563007    0.31001002    0.34947933    0.04800000
opls_146-191    H    0.89081006    0.35932004    0.03010013    0.04800000
opls_146-192    H    0.95047005    0.41889001    0.97891991    0.04800000
opls_146-193    H    0.49827997    0.44014001    0.51283117    0.04800000
opls_146-194    H    0.63231012    0.60986009    0.26128116    0.04800000
opls_146-195    H    0.69021995    0.60945998    0.31099027    0.04800000
opls_146-196    H    0.63874013    0.52486014    0.00585114    0.04800000
opls_146-197    H    0.58275997    0.52861996    0.98637105    0.04800000
opls_146-198    H    0.05772008    0.56305012    0.49333108    0.04800000
opls_146-199    H    0.02734997    0.40006006    0.19816088    0.04800000
opls_146-200    H    0.08564006    0.40036011    0.24372997    0.04800000
opls_146-201    H    0.12244003    0.48283000    0.95677981    0.04800000
opls_146-202    H    0.06215002    0.47851001    0.94425975    0.04800000
opls_146-203    H    0.49422002    0.93808008    0.49337997    0.04800000
opls_146-204    H    0.37099013    0.98332007    0.27022120    0.04800000
opls_146-205    H    0.31024990    0.92526986    0.34923044    0.04800000
opls_146-206    H    0.35924017    0.89022008    0.02697123    0.04800000
opls_146-207    H    0.41877025    0.94993010    0.97595100    0.04800000
opls_146-208    H    0.44063004    0.49901001    0.51355117    0.04740000
opls_146-209    H    0.61044999    0.63215006    0.26310117    0.04800000
opls_146-210    H    0.61032011    0.69034005    0.31469918    0.04800000
opls_146-211    H    0.52578006    0.63907013    0.01061116    0.04800000
opls_146-212    H    0.52924011    0.58280018    0.98897106    0.04800000
opls_146-213    H    0.94229012    0.43693998    0.49401997    0.04800000
opls_146-214    H    0.97282004    0.59977993    0.19840088    0.04800000
opls_146-215    H    0.91450008    0.59949009    0.24358997    0.04800000
opls_146-216    H    0.87735025    0.51715013    0.95645981    0.04800000
opls_146-217    H    0.93769019    0.52154013    0.94471975    0.04800000
opls_146-218    H    0.50576991    0.06183994    0.49455109    0.04800000
opls_146-219    H    0.62896015    0.01674004    0.26560118    0.04800000
opls_146-220    H    0.68973018    0.07473006    0.34483931    0.04800000
opls_146-221    H    0.64073022    0.10972010    0.02682012    0.04800000
opls_146-222    H    0.58121020    0.05000998    0.97607989    0.04800000
opls_146-223    H    0.55935019    0.50096015    0.51284006    0.04800000
opls_146-224    H    0.38932996    0.36757992    0.26641007    0.04800000
opls_146-225    H    0.38956010    0.30946999    0.31789919    0.04790000
opls_146-226    H    0.47427010    0.36117000    0.01009116    0.04800000
opls_146-227    H    0.47074016    0.41740019    0.98857995    0.04800000
opls_146-228    H    0.51030013    0.75282004    0.04196019    0.04800000
opls_146-229    H    0.61534003    0.80915985    0.26982120    0.04800000
opls_146-230    H    0.23763009    0.76030010    0.11065160    0.04800000
opls_146-231    H    0.18649007    0.81173997    0.34475042    0.04800000
opls_146-232    H    0.24881027    0.49050018    0.03825128    0.04800000
opls_146-233    H    0.19295008    0.38526991    0.26671007    0.04800000
opls_146-234    H    0.48973022    0.24743020    0.04139130    0.04800000
opls_146-235    H    0.38468996    0.19073989    0.27240121    0.04800000
opls_146-236    H    0.76236015    0.23958008    0.11135161    0.04740000
opls_146-237    H    0.81358994    0.18822999    0.34115041    0.04800000
opls_146-238    H    0.75098022    0.50949021    0.03773128    0.04800000
opls_146-239    H    0.80722993    0.61467993    0.26733008    0.04800000
opls_236-240    O    0.60530005    0.87173993    0.26411006    -0.34300000
opls_236-241    O    0.52104001    0.68655003    0.03150014    -0.33940000
opls_236-242    O    0.12032007    0.73835996    0.35435935    -0.33390000
opls_236-243    O    0.30841006    0.83812000    0.07528922    -0.33390000
opls_236-244    O    0.26333015    0.38948011    0.30015022    -0.33620000
opls_236-245    O    0.17415022    0.48573012    0.98787995    -0.32140000
opls_236-246    O    0.39475010    0.12817009    0.26626118    -0.33390000
opls_236-247    O    0.47893984    0.31365987    0.03160903    -0.33820000
opls_236-248    O    0.87978993    0.26162001    0.35131045    -0.34030000
opls_236-249    O    0.69153992    0.16180994    0.07488922    -0.33940000
opls_236-250    O    0.73682996    0.61049992    0.30077023    -0.33400000
opls_236-251    O    0.82568009    0.51427000    0.98773995    -0.33190000
opls_236-252    O    0.12866004    0.39520011    0.26202116    -0.32100000
opls_236-253    O    0.31365995    0.47996009    0.02630901    -0.33820000
opls_236-254    O    0.26185991    0.87953996    0.35189934    -0.34030000
opls_236-255    O    0.16125998    0.69133992    0.07780923    -0.33820000
opls_236-256    O    0.61138995    0.73705003    0.30487024    -0.32100000
opls_236-257    O    0.51488012    0.82609001    0.99035996    -0.33190000
opls_236-258    O    0.87154006    0.60476996    0.26263006    -0.33940000
opls_236-259    O    0.68614992    0.52005998    0.02624012    -0.33450000
opls_236-260    O    0.73820992    0.12040990    0.34863044    -0.34480000
opls_236-261    O    0.83869011    0.30857998    0.07760923    -0.32320000
opls_236-262    O    0.38864994    0.26285990    0.30699025    -0.32100000
opls_236-263    O    0.48510009    0.17409015    0.99043996    -0.32320000
