#======================================================================
# Crystal Data Generated By AuToFF
#----------------------------------------------------------------------

data_AuToFF_phase_1

_cell_length_a                         27.4450
_cell_length_b                         27.4450
_cell_length_c                         3.2740
_cell_angle_alpha                      90.00
_cell_angle_beta                       90.00
_cell_angle_gamma                      120.00
_symmetry_space_group_name_H-M_alt     'P 1'
_symmetry_space_group_IT_number        1

loop_
_space_group_symop_operation_xyz
   'x, y, z'

loop_
   _atom_site_label
   _atom_site_type_symbol
   _atom_site_fract_x
   _atom_site_fract_y
   _atom_site_fract_z
   _atom_site_charge
opls_280-0    C    0.30026010    0.68954989    0.00000000    0.28800000
opls_522-1    C    0.27736994    0.63358994    0.00000000    -0.11280000
opls_166-2    C    0.39949006    0.62089013    0.00000000    0.44550000
opls_567-3    C    0.40966993    0.54203980    0.00000000    0.44550000
opls_522-4    C    0.46563980    0.57510980    0.00000000    -0.11280000
opls_166-5    C    0.48852990    0.63107985    0.00000000    0.54410000
opls_517-6    C    0.56738004    0.72011989    0.00000000    0.18850000
opls_143-7    C    0.62334002    0.75319999    0.00000000    -0.40370000
opls_523-8    C    0.48852983    0.54203980    0.00000000    -0.01840000
opls_567-9    C    0.44671004    0.48852010    0.00000000    0.21730000
opls_145-10    C    0.45859005    0.44804984    0.00000000    -0.21040000
opls_280-11    C    0.31044996    0.61071008    0.00000000    0.28800000
opls_522-12    C    0.36640999    0.64378008    0.00000000    -0.11280000
opls_166-13    C    0.37911018    0.77860003    0.00000000    0.44550000
opls_567-14    C    0.45796001    0.86762998    0.00000000    0.44550000
opls_522-15    C    0.42489008    0.89053003    0.00000000    -0.11280000
opls_166-16    C    0.36891990    0.85744993    0.00000000    0.54410000
opls_517-17    C    0.27987985    0.84725979    0.00000000    0.18850000
opls_143-18    C    0.24680004    0.87014007    0.00000000    -0.39740000
opls_523-19    C    0.45795987    0.94648998    0.00000000    -0.01840000
opls_567-20    C    0.51147999    0.95818971    0.00000000    0.21730000
opls_145-21    C    0.55195000    0.01054019    0.00000000    -0.21040000
opls_280-22    C    0.38928995    0.69974003    0.00000000    0.28800000
opls_522-23    C    0.35622007    0.72262998    0.00000000    -0.11280000
opls_166-24    C    0.22139976    0.60050984    0.00000000    0.44550000
opls_567-25    C    0.13236986    0.59032980    0.00000000    0.44550000
opls_522-26    C    0.10946991    0.53435975    0.00000000    -0.11280000
opls_166-27    C    0.14254998    0.51146980    0.00000000    0.54410000
opls_517-28    C    0.15273990    0.43261990    0.00000000    0.18850000
opls_143-29    C    0.12985994    0.37665995    0.00000000    -0.40370000
opls_523-30    C    0.05350972    0.51146980    0.00000000    -0.01840000
opls_567-31    C    0.04180976    0.55328977    0.00000000    0.21730000
opls_145-32    C    0.98945995    0.54140997    0.00000000    -0.21040000
opls_280-33    C    0.69973990    0.31045011    0.00000000    0.28800000
opls_522-34    C    0.72263006    0.36641006    0.00000000    -0.11280000
opls_166-35    C    0.60050994    0.37910987    0.00000000    0.44550000
opls_567-36    C    0.59032986    0.45795978    0.00000000    0.44550000
opls_522-37    C    0.53435999    0.42488978    0.00000000    -0.11280000
opls_166-38    C    0.51147010    0.36892015    0.00000000    0.54410000
opls_517-39    C    0.43261996    0.27988011    0.00000000    0.18850000
opls_143-40    C    0.37665998    0.24680001    0.00000000    -0.40370000
opls_523-41    C    0.51146996    0.45795978    0.00000000    -0.01840000
opls_567-42    C    0.55328996    0.51147990    0.00000000    0.21730000
opls_145-43    C    0.54140974    0.55194974    0.00000000    -0.21040000
opls_280-44    C    0.68955004    0.38928992    0.00000000    0.28810000
opls_522-45    C    0.63359001    0.35621992    0.00000000    -0.11280000
opls_166-46    C    0.62088982    0.22139997    0.00000000    0.44550000
opls_567-47    C    0.54203999    0.13237002    0.00000000    0.44550000
opls_522-48    C    0.57510992    0.10946997    0.00000000    -0.11280000
opls_166-49    C    0.63108010    0.14255007    0.00000000    0.54410000
opls_517-50    C    0.72011994    0.15273979    0.00000000    0.18850000
opls_143-51    C    0.75319996    0.12985993    0.00000000    -0.39740000
opls_523-52    C    0.54204013    0.05351002    0.00000000    -0.01840000
opls_567-53    C    0.48851980    0.04180987    0.00000000    0.21730000
opls_145-54    C    0.44805000    0.98945981    0.00000000    -0.21040000
opls_280-55    C    0.61071005    0.30025997    0.00000000    0.28800000
opls_522-56    C    0.64377993    0.27737002    0.00000000    -0.11280000
opls_166-57    C    0.77860024    0.39949016    0.00000000    0.44570000
opls_567-58    C    0.86762993    0.40966978    0.00000000    0.44550000
opls_522-59    C    0.89052988    0.46563983    0.00000000    -0.11280000
opls_166-60    C    0.85744981    0.48852978    0.00000000    0.54410000
opls_517-61    C    0.84726010    0.56738010    0.00000000    0.18850000
opls_143-62    C    0.87014006    0.62334005    0.00000000    -0.40360000
opls_523-63    C    0.94649007    0.48852978    0.00000000    -0.01840000
opls_567-64    C    0.95819003    0.44670981    0.00000000    0.21730000
opls_145-65    C    0.01054005    0.45859003    0.00000000    -0.21040000
opls_520-66    N    0.37660006    0.56492976    0.00000000    -0.46300000
opls_520-67    N    0.43506985    0.81167003    0.00000000    -0.46290000
opls_520-68    N    0.18832989    0.62339980    0.00000000    -0.46300000
opls_520-69    N    0.62339973    0.43506982    0.00000000    -0.46300000
opls_520-70    N    0.56493015    0.18832997    0.00000000    -0.46300000
opls_520-71    N    0.81166990    0.37659978    0.00000000    -0.46290000
opls_272-72    O    0.28755985    0.55474004    0.00000000    -0.32850000
opls_180-73    O    0.45544983    0.65396980    0.00000000    -0.32080000
opls_180-74    O    0.54448993    0.66414984    0.00000000    -0.22140000
opls_566-75    O    0.39797002    0.48852010    0.00000000    -0.20090000
opls_272-76    O    0.44526013    0.73282012    0.00000000    -0.32850000
opls_180-77    O    0.34602979    0.80147988    0.00000000    -0.32080000
opls_180-78    O    0.33585003    0.88033988    0.00000000    -0.22140000
opls_566-79    O    0.51147994    0.90944995    0.00000000    -0.20090000
opls_272-80    O    0.26718002    0.71243984    0.00000000    -0.32850000
opls_180-81    O    0.19851980    0.54454989    0.00000000    -0.32080000
opls_180-82    O    0.11965983    0.45550985    0.00000000    -0.22140000
opls_566-83    O    0.09055005    0.60202995    0.00000000    -0.20090000
opls_272-84    O    0.71244015    0.44525996    0.00000000    -0.32850000
opls_180-85    O    0.54454996    0.34602978    0.00000000    -0.32080000
opls_180-86    O    0.45551007    0.33585016    0.00000000    -0.22140000
opls_566-87    O    0.60202998    0.51147990    0.00000000    -0.20090000
opls_272-88    O    0.55473987    0.26717988    0.00000000    -0.32850000
opls_180-89    O    0.65397021    0.19852012    0.00000000    -0.32080000
opls_180-90    O    0.66414997    0.11966012    0.00000000    -0.22140000
opls_566-91    O    0.48852006    0.09055005    0.00000000    -0.20090000
opls_272-92    O    0.73281998    0.28756016    0.00000000    -0.32850000
opls_180-93    O    0.80148020    0.45545011    0.00000000    -0.32080000
opls_180-94    O    0.88033996    0.54448973    0.00000000    -0.22140000
opls_566-95    O    0.90944995    0.39797005    0.00000000    -0.20090000
opls_185-96    H    0.53919016    0.73963010    0.00000000    0.02310000
opls_144-97    H    0.65026974    0.74346971    0.78736103    0.09790000
opls_144-98    H    0.64410971    0.79111977    0.21263897    0.09790000
opls_146-99    H    0.42323001    0.40230991    0.00000000    0.04270000
opls_185-100    H    0.26036995    0.79956008    0.00000000    0.02310000
opls_144-101    H    0.20372984    0.84717985    0.84718082    0.09790000
opls_144-102    H    0.26166995    0.91261007    0.15281918    0.09790000
opls_146-103    H    0.59769014    0.02092008    0.00000000    0.04270000
opls_185-104    H    0.20043989    0.46080982    0.00000000    0.02310000
opls_144-105    H    0.15525990    0.35684008    0.88642028    0.09790000
opls_144-106    H    0.08495008    0.34878011    0.11357972    0.09790000
opls_146-107    H    0.97907985    0.57677001    0.00000000    0.04270000
opls_185-108    H    0.46080984    0.26036990    0.00000000    0.02310000
opls_144-109    H    0.35589008    0.20887981    0.78736103    0.09790000
opls_144-110    H    0.34973005    0.25652987    0.21263897    0.09790000
opls_146-111    H    0.57676999    0.59769009    0.00000000    0.04270000
opls_185-112    H    0.73963005    0.20043992    0.00000000    0.02310000
opls_144-113    H    0.73833005    0.08738993    0.84718082    0.09790000
opls_144-114    H    0.79627016    0.15282015    0.15281918    0.09790000
opls_146-115    H    0.40230986    0.97907992    0.00000000    0.04270000
opls_185-116    H    0.79955990    0.53918976    0.00000000    0.02310000
opls_144-117    H    0.91504992    0.65121989    0.88642028    0.09790000
opls_144-118    H    0.84474010    0.64315992    0.11357972    0.09790000
opls_146-119    H    0.02092015    0.42322999    0.00000000    0.04270000
