#======================================================================
# Crystal Data Generated By AuToFF
#----------------------------------------------------------------------

data_AuToFF_phase_1

_cell_length_a                         52.0050
_cell_length_b                         52.0050
_cell_length_c                         8.0140
_cell_angle_alpha                      90.00
_cell_angle_beta                       90.00
_cell_angle_gamma                      120.00
_symmetry_space_group_name_H-M_alt     'P 1'
_symmetry_space_group_IT_number        1

loop_
_space_group_symop_operation_xyz
   'x, y, z'

loop_
   _atom_site_label
   _atom_site_type_symbol
   _atom_site_fract_x
   _atom_site_fract_y
   _atom_site_fract_z
   _atom_site_charge
opls_145-0    C    0.40916997    0.73267011    0.06777015    -0.07350000
opls_145-1    C    0.43997988    0.75043991    0.08148989    -0.13190000
opls_145-2    C    0.45808004    0.73766993    0.09143998    0.23470000
opls_145-3    C    0.44475005    0.70651000    0.08737959    -0.13210000
opls_145-4    C    0.41393005    0.68870001    0.07356002    -0.07350000
opls_700-5    C    0.39575987    0.70154993    0.06467058    0.07860000
opls_142-6    C    0.51006014    0.74995010    0.10300973    0.01670000
opls_700-7    C    0.54142004    0.77217994    0.13623035    0.09110000
opls_145-8    C    0.56303009    0.76357004    0.13093961    -0.07340000
opls_145-9    C    0.59269994    0.78404002    0.16646993    -0.07340000
opls_700-10    C    0.60110997    0.81325003    0.21180060    0.08880000
opls_145-11    C    0.57978995    0.82227003    0.20998003    -0.07340000
opls_145-12    C    0.55011009    0.80183002    0.17450961    -0.07350000
opls_700-13    C    0.63257008    0.83509997    0.24425006    0.00220000
opls_624-14    C    0.64903001    0.83365007    0.38089968    0.08210000
opls_624-15    C    0.67934994    0.85279005    0.39308959    0.08270000
opls_700-16    C    0.69508005    0.87427008    0.26902046    -0.00270000
opls_145-17    C    0.67861998    0.87705997    0.13840030    -0.07550000
opls_145-18    C    0.64785991    0.85790999    0.12672947    -0.07940000
opls_700-19    C    0.72767001    0.89164999    0.25981033    0.08280000
opls_145-20    C    0.74386009    0.87754001    0.22057025    -0.09170000
opls_145-21    C    0.77479004    0.89396005    0.20973047    -0.07350000
opls_700-22    C    0.78995005    0.92483000    0.23680060    0.08260000
opls_145-23    C    0.77355999    0.93891999    0.27276017    -0.07360000
opls_145-24    C    0.74259005    0.92246998    0.28322061    -0.07340000
opls_142-25    C    0.82266006    0.94263999    0.22895059    0.01660000
opls_558-26    C    0.66489996    0.82407008    0.60654979    0.25790000
opls_145-27    C    0.87027998    0.94452997    0.19016970    0.23420000
opls_145-28    C    0.88341998    0.92672997    0.18850012    -0.13190000
opls_145-29    C    0.91425994    0.93946998    0.18162965    -0.07360000
opls_700-30    C    0.93268007    0.97047004    0.17538058    0.13470000
opls_145-31    C    0.91947004    0.98837994    0.17403045    -0.07560000
opls_145-32    C    0.88860990    0.97560996    0.18082980    -0.13210000
opls_142-33    C    0.61016009    0.79296011    0.57131021    0.07070000
opls_142-34    C    0.71814993    0.86265003    0.62023958    0.07070000
opls_143-35    C    0.59178994    0.80698993    0.62505990    -0.28780000
opls_143-36    C    0.73355010    0.84426008    0.61893062    -0.28800000
opls_145-37    C    0.36301004    0.68257003    0.05714000    0.04340000
MOF2_C_3-38    C    0.96541008    0.98400005    0.17163963    -0.13740000
opls_145-39    C    0.34545006    0.69495011    0.05721987    -0.09970000
MOF2_C_3-40    C    0.98318994    0.01390992    0.17169953    -0.21160000
opls_145-41    C    0.26733009    0.67650000    0.06777015    -0.07350000
opls_145-42    C    0.24955991    0.68953997    0.08148989    -0.13190000
opls_145-43    C    0.26232995    0.72040992    0.09143998    0.23470000
opls_145-44    C    0.29349002    0.73824012    0.08737959    -0.13210000
opls_145-45    C    0.31129999    0.72523011    0.07356002    -0.07350000
opls_700-46    C    0.29845010    0.69421007    0.06467058    0.07860000
opls_142-47    C    0.25005002    0.76011004    0.10300973    0.01670000
opls_700-48    C    0.22782006    0.76923996    0.13623035    0.09110000
opls_145-49    C    0.23642994    0.79946001    0.13093961    -0.07340000
opls_145-50    C    0.21596008    0.80866009    0.16646993    -0.07340000
opls_700-51    C    0.18674989    0.78785993    0.21180060    0.08880000
opls_145-52    C    0.17772990    0.75751999    0.20998003    -0.07340000
opls_145-53    C    0.19816997    0.74827994    0.17450961    -0.07350000
opls_700-54    C    0.16490004    0.79747012    0.24425006    0.00170000
opls_624-55    C    0.16634995    0.81538002    0.38089968    0.08210000
opls_624-56    C    0.14721001    0.82656000    0.39308959    0.08270000
opls_700-57    C    0.12573003    0.82080992    0.26902046    -0.00270000
opls_145-58    C    0.12294000    0.80156003    0.13840030    -0.07550000
opls_145-59    C    0.14209007    0.78994996    0.12672947    -0.07940000
opls_700-60    C    0.10835001    0.83602009    0.25981033    0.08280000
opls_145-61    C    0.12246010    0.86632007    0.22057025    -0.09170000
opls_145-62    C    0.10604000    0.88082993    0.20973047    -0.07350000
opls_700-63    C    0.07516992    0.86511996    0.23680060    0.08260000
opls_145-64    C    0.06108009    0.83464013    0.27276017    -0.07360000
opls_145-65    C    0.07753008    0.82012006    0.28322061    -0.07340000
opls_142-66    C    0.05736003    0.88001994    0.22895059    0.01660000
opls_558-67    C    0.17593008    0.84083006    0.60654979    0.25790000
opls_145-68    C    0.05547000    0.92575012    0.19016970    0.23420000
opls_145-69    C    0.07326992    0.95669001    0.18850012    -0.13190000
opls_145-70    C    0.06053007    0.97478998    0.18162965    -0.07360000
opls_700-71    C    0.02952999    0.96221006    0.17538058    0.13470000
opls_145-72    C    0.01162004    0.93109010    0.17403045    -0.07560000
opls_145-73    C    0.02439007    0.91300012    0.18082980    -0.13210000
opls_142-74    C    0.20703998    0.81720005    0.57131021    0.07070000
opls_142-75    C    0.13735004    0.85550001    0.62023958    0.07070000
opls_143-76    C    0.19300997    0.78480005    0.62505990    -0.28780000
opls_143-77    C    0.15574007    0.88928996    0.61893062    -0.28800000
opls_145-78    C    0.31743009    0.68044003    0.05714000    0.04340000
MOF2_C_3-79    C    0.01600007    0.98141000    0.17163963    -0.13740000
opls_145-80    C    0.30505000    0.65049997    0.05721987    -0.09970000
MOF2_C_3-81    C    0.98609002    0.96927992    0.17169953    -0.21160000
opls_145-82    C    0.32350005    0.59083012    0.06777015    -0.07350000
opls_145-83    C    0.31046001    0.56002012    0.08148989    -0.13190000
opls_145-84    C    0.27958990    0.54191993    0.09143998    0.23470000
opls_145-85    C    0.26176004    0.55525011    0.08737959    -0.13210000
opls_145-86    C    0.27477008    0.58607010    0.07356002    -0.07350000
opls_700-87    C    0.30579004    0.60424001    0.06467058    0.07860000
opls_142-88    C    0.23988995    0.48994008    0.10300973    0.01670000
opls_700-89    C    0.23076010    0.45858010    0.13623035    0.09110000
opls_145-90    C    0.20053997    0.43696996    0.13093961    -0.07340000
opls_145-91    C    0.19134009    0.40730011    0.16646993    -0.07340000
opls_700-92    C    0.21213995    0.39889004    0.21180060    0.08880000
opls_145-93    C    0.24247995    0.42020998    0.20998003    -0.07340000
opls_145-94    C    0.25171994    0.44989004    0.17450961    -0.07350000
opls_700-95    C    0.20252988    0.36742992    0.24425006    0.00220000
opls_624-96    C    0.18462004    0.35096991    0.38089968    0.08210000
opls_624-97    C    0.17344006    0.32064995    0.39308959    0.08270000
opls_700-98    C    0.17918993    0.30491999    0.26902046    -0.00270000
opls_145-99    C    0.19844002    0.32138000    0.13840030    -0.07550000
opls_145-100    C    0.21005002    0.35214004    0.12672947    -0.07940000
opls_700-101    C    0.16397998    0.27232993    0.25981033    0.08280000
opls_145-102    C    0.13368000    0.25613992    0.22057025    -0.09170000
opls_145-103    C    0.11916996    0.22521002    0.20973047    -0.07350000
opls_700-104    C    0.13488003    0.21005004    0.23680060    0.08260000
opls_145-105    C    0.16536004    0.22644010    0.27276017    -0.07360000
opls_145-106    C    0.17988006    0.25740997    0.28322061    -0.07340000
opls_142-107    C    0.11998010    0.17734007    0.22895059    0.01660000
opls_558-108    C    0.15917008    0.33510008    0.60654979    0.25790000
opls_145-109    C    0.07425001    0.12971991    0.19016970    0.23410000
opls_145-110    C    0.04331010    0.11658002    0.18850012    -0.13190000
opls_145-111    C    0.02520999    0.08574004    0.18162965    -0.07360000
opls_700-112    C    0.03778994    0.06731990    0.17538058    0.13470000
opls_145-113    C    0.06890992    0.08052996    0.17403045    -0.07560000
opls_145-114    C    0.08700002    0.11138991    0.18082980    -0.13210000
opls_142-115    C    0.18280004    0.38984006    0.57131021    0.07070000
opls_142-116    C    0.14450002    0.28184996    0.62023958    0.07070000
opls_143-117    C    0.21520010    0.40821002    0.62505990    -0.28780000
opls_143-118    C    0.11071003    0.26644996    0.61893062    -0.28800000
opls_145-119    C    0.31956006    0.63698994    0.05714000    0.04340000
MOF2_C_3-120    C    0.01859004    0.03458995    0.17163963    -0.13740000
opls_145-121    C    0.34949994    0.65454992    0.05721987    -0.09970000
MOF2_C_3-122    C    0.03071994    0.01680994    0.17169953    -0.21160000
opls_750-123    N    0.48947997    0.75710012    0.11316945    -0.26920000
opls_557-124    N    0.63990002    0.81559007    0.51682056    -0.01470000
opls_557-125    N    0.68928000    0.84675999    0.53618043    -0.01480000
opls_750-126    N    0.83842009    0.93008006    0.19960943    -0.26920000
opls_750-127    N    0.24289989    0.73237991    0.11316945    -0.26920000
opls_557-128    N    0.18441003    0.82431010    0.51682056    -0.01470000
opls_557-129    N    0.15323999    0.84251998    0.53618043    -0.01480000
opls_750-130    N    0.06992004    0.90834002    0.19960943    -0.26920000
opls_750-131    N    0.26761995    0.51051998    0.11316945    -0.26920000
opls_557-132    N    0.17569006    0.36010005    0.51682056    -0.01470000
opls_557-133    N    0.15748000    0.31072003    0.53618043    -0.01480000
opls_750-134    N    0.09165988    0.16157992    0.19960943    -0.26920000
F2_Au4+3-135    Au    0.66615011    0.80576007    0.82238957    -0.05640000
F2_Au4+3-136    Au    0.19423995    0.86038992    0.82238957    -0.05640000
F2_Au4+3-137    Au    0.13960994    0.33385001    0.82238957    -0.05640000
opls_146-138    H    0.39471011    0.74338004    0.05899052    0.05040000
opls_146-139    H    0.45064988    0.77564993    0.08469054    0.05040000
opls_146-140    H    0.45911004    0.69567995    0.09538058    0.05040000
opls_146-141    H    0.40331003    0.66349998    0.06939980    0.05040000
opls_144-142    H    0.50398997    0.72632009    0.06816945    0.02970000
opls_146-143    H    0.55642993    0.73973997    0.09749938    0.04980000
opls_146-144    H    0.61022008    0.77703011    0.15867981    0.05040000
opls_146-145    H    0.58665010    0.84637009    0.23752059    0.05040000
opls_146-146    H    0.53279004    0.80915012    0.17648989    0.05040000
opls_146-147    H    0.69025993    0.89508001    0.03999002    0.05040000
opls_146-148    H    0.63480002    0.86067013    0.02078987    0.04980000
opls_146-149    H    0.73178006    0.85257002    0.19736960    0.05040000
opls_146-150    H    0.78787992    0.88235998    0.17881957    0.05040000
opls_146-151    H    0.78550002    0.96394994    0.29366983    0.05040000
opls_146-152    H    0.72947994    0.93417996    0.31084976    0.05040000
opls_144-153    H    0.83435991    0.96768992    0.24872972    0.02970000
opls_146-154    H    0.86892996    0.90151995    0.19277015    0.05040000
opls_146-155    H    0.92467003    0.92469012    0.18105940    0.05040000
opls_146-156    H    0.93396007    0.01356998    0.16733966    0.05040000
opls_146-157    H    0.87815994    0.99035007    0.17882955    0.05040000
opls_144-158    H    0.60357002    0.76849991    0.56943973    0.02970000
opls_144-159    H    0.72607003    0.88561992    0.67527951    0.02970000
opls_144-160    H    0.56709005    0.79550998    0.59450961    0.11550000
opls_144-161    H    0.60275997    0.82895000    0.69576990    0.11550000
opls_144-162    H    0.72150011    0.82065006    0.56766034    0.11550000
opls_144-163    H    0.75712002    0.85411006    0.66922011    0.11550000
MOF2_H_b-164    H    0.97581006    0.96921997    0.16867981    -0.04420000
opls_146-165    H    0.35585998    0.72013993    0.05736960    0.05040000
MOF2_H_b-166    H    0.00590003    0.02444999    0.10906039    -0.04310000
MOF2_H_-167    H    0.97544003    0.02852991    0.23438982    0.11550000
opls_146-168    H    0.25661988    0.65132994    0.05899052    0.05040000
opls_146-169    H    0.22434988    0.67499992    0.08469054    0.05040000
opls_146-170    H    0.30431991    0.76342993    0.09538058    0.05040000
opls_146-171    H    0.33649990    0.73979992    0.06939980    0.05040000
opls_144-172    H    0.27367993    0.77767002    0.06816945    0.02970000
opls_146-173    H    0.26026003    0.81668004    0.09749938    0.05040000
opls_146-174    H    0.22296997    0.83319001    0.15867981    0.05040000
opls_146-175    H    0.15363003    0.74027997    0.23752059    0.05040000
opls_146-176    H    0.19085015    0.72364011    0.17648989    0.05040000
opls_146-177    H    0.10492008    0.79517004    0.03999002    0.05040000
opls_146-178    H    0.13933002    0.77414008    0.02078987    0.05040000
opls_146-179    H    0.14742999    0.87920995    0.19736960    0.05040000
opls_146-180    H    0.11763988    0.90551994    0.17881957    0.05040000
opls_146-181    H    0.03605005    0.82154997    0.29366983    0.05040000
opls_146-182    H    0.06581995    0.79529993    0.31084976    0.05040000
opls_144-183    H    0.03230990    0.86667000    0.24872972    0.02970000
opls_146-184    H    0.09847989    0.96740993    0.19277015    0.05040000
opls_146-185    H    0.07531007    0.99998002    0.18105940    0.05040000
opls_146-186    H    0.98642995    0.92038994    0.16733966    0.05040000
opls_146-187    H    0.00965007    0.88781009    0.17882955    0.05040000
opls_144-188    H    0.23150000    0.83506999    0.56943973    0.02970000
opls_144-189    H    0.11437995    0.84044993    0.67527951    0.02970000
opls_144-190    H    0.20448993    0.77158000    0.59450961    0.11550000
opls_144-191    H    0.17104994    0.77380991    0.69576990    0.11550000
opls_144-192    H    0.17934994    0.90085007    0.56766034    0.11550000
opls_144-193    H    0.14588998    0.90301004    0.66922011    0.11550000
MOF2_H_b-194    H    0.03078007    0.00659004    0.16867981    -0.04420000
opls_146-195    H    0.27986005    0.63573011    0.05736960    0.05040000
MOF2_H_b-196    H    0.97554990    0.98144996    0.10906039    -0.04310000
MOF2_H_-197    H    0.97146999    0.94690997    0.23438982    0.11550000
opls_146-198    H    0.34867001    0.60529002    0.05899052    0.05040000
opls_146-199    H    0.32499994    0.54934993    0.08469054    0.05040000
opls_146-200    H    0.23657005    0.54089012    0.09538058    0.05040000
opls_146-201    H    0.26020007    0.59669010    0.06939980    0.05040000
opls_144-202    H    0.22233003    0.49601012    0.06816945    0.02970000
opls_146-203    H    0.18332004    0.44356999    0.09749938    0.05040000
opls_146-204    H    0.16681006    0.38978011    0.15867981    0.05040000
opls_146-205    H    0.25972006    0.41334994    0.23752059    0.05040000
opls_146-206    H    0.27635992    0.46720999    0.17648989    0.05040000
opls_146-207    H    0.20482998    0.30973996    0.03999002    0.05040000
opls_146-208    H    0.22586007    0.36520000    0.02078987    0.05040000
opls_146-209    H    0.12078995    0.26822003    0.19736960    0.05040000
opls_146-210    H    0.09448000    0.21212008    0.17881957    0.05040000
opls_146-211    H    0.17845012    0.21450009    0.29366983    0.05040000
opls_146-212    H    0.20470011    0.27052011    0.31084976    0.05040000
opls_144-213    H    0.13332999    0.16564008    0.24872972    0.02970000
opls_146-214    H    0.03259004    0.13106989    0.19277015    0.05040000
opls_146-215    H    0.00002001    0.07533008    0.18105940    0.05040000
opls_146-216    H    0.07960998    0.06604008    0.16733966    0.05040000
opls_146-217    H    0.11219010    0.12184006    0.17882955    0.05040000
opls_144-218    H    0.16492998    0.39643010    0.56943973    0.02970000
opls_144-219    H    0.15954991    0.27392992    0.67527951    0.02970000
opls_144-220    H    0.22842001    0.43291002    0.59450961    0.11550000
opls_144-221    H    0.22619008    0.39724009    0.69576990    0.11550000
opls_144-222    H    0.09915006    0.27850010    0.56766034    0.11550000
opls_144-223    H    0.09698999    0.24287990    0.66922011    0.11550000
MOF2_H_b-224    H    0.99341006    0.02418998    0.16867981    -0.04420000
opls_146-225    H    0.36426996    0.64413996    0.05736960    0.05040000
MOF2_H_b-226    H    0.01855007    0.99410005    0.10906039    -0.04310000
MOF2_H_-227    H    0.05308987    0.02455990    0.23438982    0.11550000
