#======================================================================
# Crystal Data Generated By AuToFF
#----------------------------------------------------------------------

data_AuToFF_phase_1

_cell_length_a                         11.0914
_cell_length_b                         11.0915
_cell_length_c                         20.0000
_cell_angle_alpha                      90.00
_cell_angle_beta                       90.00
_cell_angle_gamma                      120.15
_symmetry_space_group_name_H-M_alt     'P 1'
_symmetry_space_group_IT_number        1

loop_
_space_group_symop_operation_xyz
   'x, y, z'

loop_
   _atom_site_label
   _atom_site_type_symbol
   _atom_site_fract_x
   _atom_site_fract_y
   _atom_site_fract_z
   _atom_site_charge
opls_750-0    N    0.27837970    0.03440003    0.21927000    -0.33130000
opls_750-1    N    0.80966967    0.95025998    0.21822000    -0.20900000
opls_520-2    N    0.23604994    0.22018043    0.21955000    -0.40440000
opls_750-3    N    0.20180974    0.41982970    0.21939000    -0.30940000
opls_521-4    C    0.18089006    0.08053052    0.21924000    0.38020000
opls_523-5    C    0.95025975    0.04725026    0.21848000    0.21880000
opls_700-6    C    0.34077048    0.85304032    0.22081000    0.07030000
opls_145-7    C    0.48225073    0.94511050    0.22077000    -0.08820000
opls_700-8    C    0.57389026    0.89297038    0.22051000    0.04660000
opls_145-9    C    0.52382066    0.74718051    0.22030000    -0.10240000
opls_145-10    C    0.38369981    0.65482986    0.22042000    0.07000000
opls_145-11    C    0.29288011    0.70921995    0.22074000    -0.16370000
opls_142-12    C    0.24169988    0.90344970    0.22110000    0.08740000
opls_142-13    C    0.72015024    0.99157046    0.22066000    0.06440000
opls_142-14    C    0.33140002    0.50354020    0.22028000    0.05770000
opls_521-15    C    0.15102002    0.27435991    0.21918000    0.38030000
opls_522-16    C    0.00893009    0.19331017    0.21848000    -0.25810000
opls_522-17    C    0.03848008    0.99101996    0.21858000    -0.25850000
opls_146-18    H    0.51830968    0.05743973    0.22094000    0.07100000
opls_146-19    H    0.59678024    0.70832017    0.22016000    0.11300000
opls_146-20    H    0.18367053    0.63581048    0.22091000    0.11520000
opls_144-21    H    0.74712003    0.10291025    0.22309000    0.04620000
opls_144-22    H    0.40580941    0.46520951    0.22091000    0.06460000
opls_144-23    H    0.13431978    0.81949002    0.22302000    0.11150000
opls_525-24    H    0.94956015    0.24768983    0.21789000    0.11380000
opls_525-25    H    0.99289040    0.87783995    0.21814000    0.11400000
