#======================================================================
# Crystal Data Generated By AuToFF
#----------------------------------------------------------------------

data_AuToFF_phase_1

_cell_length_a                         51.3960
_cell_length_b                         51.3960
_cell_length_c                         3.6900
_cell_angle_alpha                      90.00
_cell_angle_beta                       90.00
_cell_angle_gamma                      120.00
_symmetry_space_group_name_H-M_alt     'P 1'
_symmetry_space_group_IT_number        1

loop_
_space_group_symop_operation_xyz
   'x, y, z'

loop_
   _atom_site_label
   _atom_site_type_symbol
   _atom_site_fract_x
   _atom_site_fract_y
   _atom_site_fract_z
   _atom_site_charge
opls_145-0    C    0.22317997    0.14640002    0.31411924    -0.17190000
opls_145-1    C    0.25397002    0.16145004    0.34042005    -0.17160000
opls_700-2    C    0.26857006    0.14651011    0.46627913    0.08190000
opls_145-3    C    0.25140005    0.11629998    0.56617886    -0.17180000
opls_145-4    C    0.22076005    0.10148002    0.54459892    -0.19310000
opls_716-5    C    0.31896008    0.19149009    0.61302981    0.12430000
opls_716-6    C    0.35106010    0.20545003    0.63244986    0.11650000
opls_700-7    C    0.36595993    0.18975004    0.52711924    0.01020000
opls_145-8    C    0.34777998    0.16063000    0.41284011    -0.17020000
opls_145-9    C    0.31655010    0.14700011    0.39524119    -0.17320000
opls_700-10    C    0.46054998    0.22975005    0.55689973    0.05960000
opls_142-11    C    0.17384996    0.10132006    0.40017886    0.12070000
opls_700-12    C    0.20619997    0.11645006    0.41759892    0.05990000
opls_700-13    C    0.30112007    0.16147003    0.48989973    -0.00560000
opls_700-14    C    0.39844992    0.20355990    0.53736043    0.08900000
opls_142-15    C    0.49262995    0.24327997    0.58046883    0.11960000
opls_145-16    C    0.41173006    0.18710009    0.65408130    -0.17180000
opls_145-17    C    0.44241997    0.20008003    0.66446883    -0.17160000
opls_145-18    C    0.44739002    0.24611011    0.43184011    -0.17180000
opls_145-19    C    0.41666986    0.23328991    0.42433875    -0.17160000
opls_145-20    C    0.54068995    0.28210991    0.51605962    0.21650000
opls_700-21    C    0.69287001    0.29582990    0.53572087    0.07730000
opls_145-22    C    0.55398009    0.26636006    0.37394038    -0.16970000
opls_145-23    C    0.58462002    0.27888010    0.38101897    -0.17310000
opls_145-24    C    0.58934996    0.32265002    0.67681030    -0.17020000
opls_145-25    C    0.55885006    0.31071007    0.66086992    -0.17390000
opls_700-26    C    0.68493992    0.36445995    0.54085095    0.08940000
opls_145-27    C    0.64865996    0.30264991    0.54110027    -0.12720000
opls_145-28    C    0.12669994    0.06065997    0.50133875    0.21750000
opls_700-29    C    0.96665015    0.93600012    0.51644986    0.07720000
opls_145-30    C    0.11166005    0.07467001    0.64537940    -0.16990000
opls_145-31    C    0.08084007    0.05967997    0.65592954    -0.17320000
opls_145-32    C    0.07930003    0.01691004    0.37294038    -0.17140000
opls_145-33    C    0.11004002    0.03129999    0.37314092    -0.17390000
opls_700-34    C    0.98509010    0.01636006    0.52259892    0.09000000
opls_145-35    C    0.01468015    0.98388011    0.52320867    -0.12800000
opls_145-36    C    0.85359998    0.07678008    0.31411924    -0.17190000
opls_145-37    C    0.83855009    0.09252006    0.34042005    -0.17160000
opls_700-38    C    0.85348992    0.12206000    0.46627913    0.08190000
opls_145-39    C    0.88370005    0.13509992    0.56617886    -0.17190000
opls_145-40    C    0.89852005    0.11927997    0.54459892    -0.19310000
opls_716-41    C    0.80851008    0.12746999    0.61302981    0.12430000
opls_716-42    C    0.79455012    0.14561009    0.63244986    0.11650000
opls_700-43    C    0.81024992    0.17621001    0.52711924    0.01020000
opls_145-44    C    0.83936999    0.18714997    0.41284011    -0.17020000
opls_145-45    C    0.85299995    0.16954997    0.39524119    -0.17320000
opls_700-46    C    0.77024995    0.23079992    0.55689973    0.05960000
opls_142-47    C    0.89868000    0.07253005    0.40017886    0.12070000
opls_700-48    C    0.88354995    0.08974991    0.41759892    0.05990000
opls_700-49    C    0.83853001    0.13965011    0.48989973    -0.00560000
opls_700-50    C    0.79644005    0.19488998    0.53736043    0.08900000
opls_142-51    C    0.75671992    0.24935004    0.58046883    0.11960000
opls_145-52    C    0.81290012    0.22463011    0.65408130    -0.17190000
opls_145-53    C    0.79992008    0.24233996    0.66446883    -0.17160000
opls_145-54    C    0.75389005    0.20127998    0.43184011    -0.17190000
opls_145-55    C    0.76671007    0.18338005    0.42433875    -0.17160000
opls_145-56    C    0.71789011    0.25858005    0.51605962    0.21650000
opls_700-57    C    0.70417010    0.39704010    0.53572087    0.07730000
opls_145-58    C    0.73364000    0.28762011    0.37394038    -0.16970000
opls_145-59    C    0.72112005    0.30573998    0.38101897    -0.17320000
opls_145-60    C    0.67734991    0.26669998    0.67681030    -0.17020000
opls_145-61    C    0.68929005    0.24813998    0.66086992    -0.17390000
opls_700-62    C    0.63554000    0.32047996    0.54085095    0.08940000
opls_145-63    C    0.69735011    0.34601004    0.54110027    -0.12720000
opls_145-64    C    0.93933999    0.06604008    0.50133875    0.21740000
opls_700-65    C    0.06400001    0.03065003    0.51644986    0.07720000
opls_145-66    C    0.92532993    0.03698992    0.64537940    -0.16990000
opls_145-67    C    0.94032009    0.02116007    0.65592954    -0.17320000
opls_145-68    C    0.98309005    0.06238991    0.37294038    -0.17140000
opls_145-69    C    0.96869995    0.07874008    0.37314092    -0.17390000
opls_700-70    C    0.98364010    0.96873012    0.52259892    0.09000000
opls_145-71    C    0.01612015    0.03080010    0.52320867    -0.12800000
opls_145-72    C    0.92321997    0.77682012    0.31411924    -0.17190000
opls_145-73    C    0.90748000    0.74603013    0.34042005    -0.17150000
opls_700-74    C    0.87794013    0.73143012    0.46627913    0.08190000
opls_145-75    C    0.86490010    0.74860010    0.56617886    -0.17190000
opls_145-76    C    0.88072009    0.77924001    0.54459892    -0.19310000
opls_716-77    C    0.87253004    0.68103991    0.61302981    0.12430000
opls_716-78    C    0.85439009    0.64894011    0.63244986    0.11650000
opls_700-79    C    0.82378995    0.63403994    0.52711924    0.01020000
opls_145-80    C    0.81285003    0.65222003    0.41284011    -0.17020000
opls_145-81    C    0.83044996    0.68344992    0.39524119    -0.17310000
opls_700-82    C    0.76920007    0.53945002    0.55689973    0.05960000
opls_142-83    C    0.92747015    0.82615012    0.40017886    0.12070000
opls_700-84    C    0.91025008    0.79380003    0.41759892    0.05990000
opls_700-85    C    0.86035003    0.69888008    0.48989973    -0.00560000
opls_700-86    C    0.80511003    0.60155012    0.53736043    0.08910000
opls_142-87    C    0.75064993    0.50736999    0.58046883    0.11960000
opls_145-88    C    0.77536993    0.58827003    0.65408130    -0.17190000
opls_145-89    C    0.75765996    0.55758001    0.66446883    -0.17160000
opls_145-90    C    0.79871993    0.55260992    0.43184011    -0.17180000
opls_145-91    C    0.81662007    0.58333004    0.42433875    -0.17160000
opls_145-92    C    0.74141994    0.45931004    0.51605962    0.21650000
opls_700-93    C    0.60296009    0.30713000    0.53572087    0.07730000
opls_145-94    C    0.71238002    0.44602006    0.37394038    -0.16970000
opls_145-95    C    0.69425993    0.41537992    0.38101897    -0.17320000
opls_145-96    C    0.73329994    0.41065000    0.67681030    -0.17020000
opls_145-97    C    0.75185990    0.44114995    0.66086992    -0.17390000
opls_700-98    C    0.67952008    0.31506009    0.54085095    0.08940000
opls_145-99    C    0.65398993    0.35134005    0.54110027    -0.12720000
opls_145-100    C    0.93395988    0.87329994    0.50133875    0.21740000
opls_700-101    C    0.96934996    0.03335008    0.51644986    0.07720000
opls_145-102    C    0.96301003    0.88834008    0.64537940    -0.16980000
opls_145-103    C    0.97884003    0.91915995    0.65592954    -0.17320000
opls_145-104    C    0.93760993    0.92070005    0.37294038    -0.17130000
opls_145-105    C    0.92126002    0.88995993    0.37314092    -0.17380000
opls_700-106    C    0.03127011    0.01491005    0.52259892    0.09000000
opls_145-107    C    0.96920001    0.98532001    0.52320867    -0.12800000
opls_750-108    N    0.30879992    0.20937002    0.73717886    -0.33560000
opls_750-109    N    0.36415004    0.23337012    0.77133875    -0.33550000
opls_750-110    N    0.51009994    0.27079993    0.50685908    -0.17460000
opls_750-111    N    0.15758006    0.07406004    0.49631978    -0.17040000
opls_750-112    N    0.79063002    0.09942993    0.73717886    -0.33560000
opls_750-113    N    0.76662999    0.13078002    0.77133875    -0.33550000
opls_750-114    N    0.72919996    0.23929999    0.50685908    -0.17460000
opls_750-115    N    0.92594015    0.08352011    0.49631978    -0.17040000
opls_750-116    N    0.90057006    0.69120005    0.73717886    -0.33550000
opls_750-117    N    0.86922009    0.63585009    0.77133875    -0.33550000
opls_750-118    N    0.76070010    0.48990008    0.50685908    -0.17460000
opls_750-119    N    0.91648010    0.84242008    0.49631978    -0.17040000
opls_202-120    S    0.33766997    0.24018001    0.85940108    0.44380000
opls_202-121    S    0.75981995    0.09748993    0.85940108    0.44380000
opls_202-122    S    0.90251008    0.66233006    0.85940108    0.44390000
opls_146-123    H    0.45263004    0.18742990    0.76407046    0.11340000
opls_146-124    H    0.46177998    0.26891992    0.34127913    0.11900000
opls_146-125    H    0.40669997    0.24586005    0.32266125    0.10630000
opls_146-126    H    0.39775006    0.16427006    0.74866938    0.11670000
opls_146-127    H    0.35812014    0.14798011    0.31936043    0.12040000
opls_146-128    H    0.30401999    0.12435992    0.28910027    0.11530000
opls_146-129    H    0.26253998    0.10477993    0.67350136    0.11770000
opls_146-130    H    0.20739999    0.07835006    0.62888076    0.11320000
opls_146-131    H    0.26688009    0.18454001    0.25481030    0.10070000
opls_146-132    H    0.21194999    0.15796994    0.21053930    0.11270000
opls_144-133    H    0.50122994    0.22865997    0.67217886    0.06810000
opls_144-134    H    0.16403998    0.11461003    0.29743902    0.06790000
opls_146-135    H    0.54831992    0.32263991    0.77323035    0.11540000
opls_146-136    H    0.60286997    0.34417990    0.80943902    0.11370000
opls_146-137    H    0.54024004    0.24496992    0.23868022    0.11090000
opls_146-138    H    0.59458014    0.26706012    0.24946070    0.11370000
opls_146-139    H    0.72138998    0.35593001    0.53789973    0.12190000
opls_146-140    H    0.12186991    0.02063997    0.26153117    0.11540000
opls_146-141    H    0.06690997    0.99474997    0.25262060    0.11790000
opls_146-142    H    0.12435001    0.09685007    0.76508943    0.11180000
opls_146-143    H    0.06968995    0.07037998    0.78669919    0.11170000
opls_146-144    H    0.94505995    0.97381007    0.52171003    0.09370000
opls_146-145    H    0.81257009    0.26520010    0.76407046    0.11340000
opls_146-146    H    0.73108003    0.19286011    0.34127913    0.11900000
opls_146-147    H    0.75413997    0.16084007    0.32266125    0.10630000
opls_146-148    H    0.83572999    0.23347998    0.74866938    0.11680000
opls_146-149    H    0.85201994    0.21013996    0.31936043    0.12040000
opls_146-150    H    0.87563999    0.17966001    0.28910027    0.11530000
opls_146-151    H    0.89522004    0.15776010    0.67350136    0.11770000
opls_146-152    H    0.92165011    0.12905008    0.62888076    0.11320000
opls_146-153    H    0.81545999    0.08233993    0.25481030    0.10070000
opls_146-154    H    0.84203005    0.05397994    0.21053930    0.11270000
opls_144-155    H    0.77134011    0.27257009    0.67217886    0.06810000
opls_144-156    H    0.88538994    0.04942997    0.29743902    0.06790000
opls_146-157    H    0.67735999    0.22567998    0.77323035    0.11540000
opls_146-158    H    0.65581997    0.25868991    0.80943902    0.11360000
opls_146-159    H    0.75502995    0.29527003    0.23868022    0.11090000
opls_146-160    H    0.73294005    0.32751991    0.24946070    0.11360000
opls_146-161    H    0.64406996    0.36545995    0.53789973    0.12190000
opls_146-162    H    0.97936002    0.10122996    0.26153117    0.11540000
opls_146-163    H    0.00524999    0.07216002    0.25262060    0.11790000
opls_146-164    H    0.90314994    0.02749996    0.76508943    0.11180000
opls_146-165    H    0.92962000    0.99931005    0.78669919    0.11170000
opls_146-166    H    0.02619002    0.97124999    0.52171003    0.09370000
opls_146-167    H    0.73480007    0.54737000    0.76407046    0.11340000
opls_146-168    H    0.80713999    0.53821997    0.34127913    0.11900000
opls_146-169    H    0.83915997    0.59330010    0.32266125    0.10630000
opls_146-170    H    0.76651995    0.60224995    0.74866938    0.11680000
opls_146-171    H    0.78985992    0.64187994    0.31936043    0.12040000
opls_146-172    H    0.82034002    0.69598007    0.28910027    0.11530000
opls_146-173    H    0.84223998    0.73745996    0.67350136    0.11770000
opls_146-174    H    0.87095002    0.79260008    0.62888076    0.11320000
opls_146-175    H    0.91766012    0.73312006    0.25481030    0.10070000
opls_146-176    H    0.94602016    0.78805012    0.21053930    0.11270000
opls_144-177    H    0.72742996    0.49876995    0.67217886    0.06810000
opls_144-178    H    0.95057008    0.83595999    0.29743902    0.06790000
opls_146-179    H    0.77432009    0.45168011    0.77323035    0.11530000
opls_146-180    H    0.74130994    0.39712996    0.80943902    0.11370000
opls_146-181    H    0.70473001    0.45976005    0.23868022    0.11090000
opls_146-182    H    0.67248000    0.40541997    0.24946070    0.11360000
opls_146-183    H    0.63454006    0.27861005    0.53789973    0.12200000
opls_146-184    H    0.89877007    0.87813007    0.26153117    0.11530000
opls_146-185    H    0.92784004    0.93309000    0.25262060    0.11790000
opls_146-186    H    0.97250005    0.87564996    0.76508943    0.11180000
opls_146-187    H    0.00069005    0.93030997    0.78669919    0.11170000
opls_146-188    H    0.02875003    0.05493994    0.52171003    0.09370000
