#======================================================================
# Crystal Data Generated By AuToFF
#----------------------------------------------------------------------

data_AuToFF_phase_1

_cell_length_a                         28.9790
_cell_length_b                         28.9790
_cell_length_c                         3.5000
_cell_angle_alpha                      90.00
_cell_angle_beta                       90.00
_cell_angle_gamma                      120.00
_symmetry_space_group_name_H-M_alt     'P 1'
_symmetry_space_group_IT_number        1

loop_
_space_group_symop_operation_xyz
   'x, y, z'

loop_
   _atom_site_label
   _atom_site_type_symbol
   _atom_site_fract_x
   _atom_site_fract_y
   _atom_site_fract_z
   _atom_site_charge
opls_146-0    H    0.72898975    0.43318982    0.50000000    0.05220000
opls_146-1    H    0.56680991    0.29580002    0.50000000    0.05220000
opls_146-2    H    0.70420000    0.27101016    0.50000000    0.05220000
opls_146-3    H    0.27101025    0.56681018    0.50000000    0.05220000
opls_146-4    H    0.43319009    0.70419998    0.50000000    0.05220000
opls_146-5    H    0.29580000    0.72898984    0.50000000    0.05220000
opls_146-6    H    0.76882996    0.29539000    0.50000000    0.05220000
opls_146-7    H    0.86854992    0.33317010    0.50000000    0.05220000
opls_146-8    H    0.79298989    0.45700983    0.50000000    0.05220000
opls_144-9    H    0.95722011    0.40848005    0.50000000    0.03080000
opls_146-10    H    0.70460984    0.47343997    0.50000000    0.05220000
opls_146-11    H    0.66683005    0.53537996    0.50000000    0.05220000
opls_146-12    H    0.54298985    0.33598005    0.50000000    0.05220000
opls_144-13    H    0.59151999    0.54873997    0.50000000    0.03080000
opls_146-14    H    0.52655985    0.23117002    0.50000000    0.05220000
opls_146-15    H    0.46462003    0.13144994    0.50000000    0.05220000
opls_146-16    H    0.66401992    0.20701013    0.50000000    0.05220000
opls_144-17    H    0.45125990    0.04277998    0.50000000    0.03080000
opls_146-18    H    0.23117004    0.70461000    0.50000000    0.05220000
opls_146-19    H    0.13145008    0.66682990    0.50000000    0.05220000
opls_146-20    H    0.20701011    0.54299017    0.50000000    0.05220000
opls_144-21    H    0.04277989    0.59151995    0.50000000    0.03080000
opls_146-22    H    0.29539016    0.52656003    0.50000000    0.05220000
opls_146-23    H    0.33316995    0.46462004    0.50000000    0.05220000
opls_146-24    H    0.45700980    0.66401995    0.50000000    0.05220000
opls_144-25    H    0.40848001    0.45126003    0.50000000    0.03080000
opls_146-26    H    0.47344015    0.76882998    0.50000000    0.05220000
opls_146-27    H    0.53537997    0.86855006    0.50000000    0.05220000
opls_146-28    H    0.33598008    0.79298987    0.50000000    0.05220000
opls_144-29    H    0.54874010    0.95722002    0.50000000    0.03080000
opls_168-30    H    0.87897002    0.52296989    0.65634000    0.33950000
opls_168-31    H    0.48590994    0.41635006    0.71044000    0.33950000
opls_168-32    H    0.64720989    0.12377000    0.60555143    0.34060000
opls_168-33    H    0.06488001    0.48671989    0.65634000    0.33950000
opls_168-34    H    0.42504994    0.93785998    0.60555143    0.33950000
opls_145-35    C    0.68726004    0.29903991    0.50000000    -0.10670000
opls_700-36    C    0.72135988    0.35374982    0.50000000    0.09490000
opls_700-37    C    0.77605994    0.37438014    0.50000000    0.09490000
opls_145-38    C    0.79678007    0.34036989    0.50000000    -0.13410000
opls_145-39    C    0.85150026    0.36111019    0.50000000    -0.13690000
opls_700-40    C    0.88552000    0.41584003    0.50000000    0.00230000
opls_166-41    C    0.86477000    0.44984988    0.50000000    0.35570000
opls_145-42    C    0.81006006    0.42909005    0.50000000    -0.19350000
opls_142-43    C    0.94024984    0.43648988    0.50000000    -0.02320000
opls_145-44    C    0.70096008    0.38821989    0.50000000    -0.10670000
opls_700-45    C    0.64624982    0.36760989    0.50000000    0.09490000
opls_700-46    C    0.62561997    0.40167991    0.50000000    0.09490000
opls_145-47    C    0.65963024    0.45641014    0.50000000    -0.13410000
opls_145-48    C    0.63889015    0.49039011    0.50000000    -0.13690000
opls_700-49    C    0.58415990    0.46968010    0.50000000    0.00230000
opls_166-50    C    0.55014987    0.41491998    0.50000000    0.35580000
opls_145-51    C    0.57091008    0.38096989    0.50000000    -0.19350000
opls_142-52    C    0.56351019    0.50376008    0.50000000    -0.02320000
opls_145-53    C    0.61178022    0.31274020    0.50000000    -0.10660000
opls_700-54    C    0.63239010    0.27863989    0.50000000    0.09490000
opls_700-55    C    0.59832009    0.22393994    0.50000000    0.09500000
opls_145-56    C    0.54359004    0.20321996    0.50000000    -0.13410000
opls_145-57    C    0.50961013    0.14850009    0.50000000    -0.13690000
opls_700-58    C    0.53032010    0.11447988    0.50000000    0.00230000
opls_166-59    C    0.58508013    0.13523014    0.50000000    0.35570000
opls_145-60    C    0.61902986    0.18994005    0.50000000    -0.19350000
opls_142-61    C    0.49623998    0.05975005    0.50000000    -0.02320000
opls_145-62    C    0.31273996    0.70096009    0.50000000    -0.10670000
opls_700-63    C    0.27864012    0.64625018    0.50000000    0.09490000
opls_700-64    C    0.22394006    0.62561986    0.50000000    0.09500000
opls_145-65    C    0.20321993    0.65963011    0.50000000    -0.13410000
opls_145-66    C    0.14849974    0.63888981    0.50000000    -0.13670000
opls_700-67    C    0.11448000    0.58415997    0.50000000    0.00230000
opls_166-68    C    0.13523000    0.55015012    0.50000000    0.35580000
opls_145-69    C    0.18993994    0.57090995    0.50000000    -0.19350000
opls_142-70    C    0.05975016    0.56351012    0.50000000    -0.02320000
opls_145-71    C    0.29903992    0.61178011    0.50000000    -0.10660000
opls_700-72    C    0.35375018    0.63239011    0.50000000    0.09490000
opls_700-73    C    0.37438003    0.59832009    0.50000000    0.09490000
opls_145-74    C    0.34036976    0.54358986    0.50000000    -0.13410000
opls_145-75    C    0.36110985    0.50960989    0.50000000    -0.13690000
opls_700-76    C    0.41584010    0.53031990    0.50000000    0.00230000
opls_231-77    C    0.44985013    0.58508002    0.50000000    0.36940000
opls_145-78    C    0.42908992    0.61903011    0.50000000    -0.19350000
opls_142-79    C    0.43648981    0.49623992    0.50000000    -0.02320000
opls_145-80    C    0.38821998    0.68726020    0.50000000    -0.10670000
opls_700-81    C    0.36760990    0.72136011    0.50000000    0.09490000
opls_700-82    C    0.40167991    0.77606006    0.50000000    0.09490000
opls_145-83    C    0.45640996    0.79678004    0.50000000    -0.13400000
opls_145-84    C    0.49038987    0.85149991    0.50000000    -0.13690000
opls_700-85    C    0.46967990    0.88552012    0.50000000    0.00230000
opls_166-86    C    0.41491987    0.86476986    0.50000000    0.35570000
opls_145-87    C    0.38097014    0.81005995    0.50000000    -0.19350000
opls_142-88    C    0.50376002    0.94024995    0.50000000    -0.02320000
opls_167-89    O    0.89799994    0.50351981    0.50000000    -0.36460000
opls_167-90    O    0.49648020    0.39448012    0.50000000    -0.36470000
opls_167-91    O    0.60552021    0.10200008    0.50000000    -0.36470000
opls_167-92    O    0.10200006    0.49648019    0.50000000    -0.36470000
opls_272-93    O    0.50351980    0.60551988    0.50000000    -0.22530000
opls_167-94    O    0.39447979    0.89799992    0.50000000    -0.36470000
opls_750-95    N    0.97372004    0.49011996    0.50000000    -0.13710000
opls_750-96    N    0.50987996    0.48359994    0.50000000    -0.13710000
opls_750-97    N    0.51640000    0.02628011    0.50000000    -0.13700000
opls_750-98    N    0.02627996    0.50988004    0.50000000    -0.13710000
opls_750-99    N    0.49012004    0.51640006    0.50000000    -0.13710000
opls_750-100    N    0.48360000    0.97371989    0.50000000    -0.13710000
