#======================================================================
# Crystal Data Generated By AuToFF
#----------------------------------------------------------------------

data_AuToFF_phase_1

_cell_length_a                         29.2140
_cell_length_b                         29.2140
_cell_length_c                         3.6000
_cell_angle_alpha                      90.00
_cell_angle_beta                       90.00
_cell_angle_gamma                      120.00
_symmetry_space_group_name_H-M_alt     'P 1'
_symmetry_space_group_IT_number        1

loop_
_space_group_symop_operation_xyz
   'x, y, z'

loop_
   _atom_site_label
   _atom_site_type_symbol
   _atom_site_fract_x
   _atom_site_fract_y
   _atom_site_fract_z
   _atom_site_charge
opls_238-0    N    0.42351977    0.61467972    0.50000000    -0.24840000
opls_238-1    N    0.38531994    0.80884005    0.50000000    -0.24840000
opls_238-2    N    0.19115975    0.57647983    0.50000000    -0.24840000
opls_238-3    N    0.57648003    0.38531988    0.50000000    -0.24840000
opls_238-4    N    0.61468006    0.19115995    0.50000000    -0.24840000
opls_238-5    N    0.80884006    0.42351978    0.50000000    -0.24840000
opls_237-6    N    0.35287980    0.50212984    0.49996111    -0.52930000
opls_237-7    N    0.49788995    0.85076998    0.50001111    -0.52930000
opls_237-8    N    0.14921993    0.64711995    0.50003056    -0.52930000
opls_237-9    N    0.64712989    0.49789981    0.50001944    -0.52930000
opls_237-10    N    0.50211978    0.14923990    0.50003056    -0.52930000
opls_237-11    N    0.85074995    0.35288005    0.50003056    -0.52930000
opls_142-12    C    0.37180000    0.59844973    0.50000000    0.10900000
opls_916-13    C    0.44425993    0.58184977    0.50000000    0.13500000
opls_916-14    C    0.41231994    0.52737008    0.50000000    0.18870000
opls_145-15    C    0.43457976    0.49613973    0.50000000    -0.21260000
opls_700-16    C    0.48903983    0.51737999    0.50000000    0.08830000
opls_145-17    C    0.52049008    0.57226996    0.50000000    -0.13790000
opls_145-18    C    0.49853999    0.60409991    0.50000000    -0.17230000
opls_142-19    C    0.40155008    0.77335003    0.50000000    0.10900000
opls_916-20    C    0.41815009    0.86239999    0.50000000    0.13500000
opls_916-21    C    0.47262993    0.88494973    0.50000000    0.18880000
opls_145-22    C    0.50385994    0.93842981    0.50000000    -0.21260000
opls_700-23    C    0.48262012    0.97167004    0.50000000    0.08830000
opls_145-24    C    0.42772979    0.94821991    0.50000000    -0.13790000
opls_145-25    C    0.39589999    0.89443982    0.50000000    -0.17230000
opls_142-26    C    0.22665007    0.62819984    0.50000000    0.10900000
opls_916-27    C    0.13759991    0.55573996    0.50000000    0.13500000
opls_916-28    C    0.11504993    0.58767980    0.50000000    0.18870000
opls_145-29    C    0.06157003    0.56541978    0.50000000    -0.21260000
opls_700-30    C    0.02832993    0.51095985    0.50000000    0.08580000
opls_145-31    C    0.05177993    0.47950974    0.50000000    -0.13790000
opls_145-32    C    0.10555981    0.50145988    0.50000000    -0.17230000
opls_142-33    C    0.62819980    0.40154988    0.50000000    0.10900000
opls_916-34    C    0.55573987    0.41814983    0.50000000    0.13500000
opls_916-35    C    0.58768006    0.47262992    0.50000000    0.18870000
opls_145-36    C    0.56542997    0.50385987    0.50000000    -0.21250000
opls_700-37    C    0.51096017    0.48262001    0.50000000    0.08830000
opls_145-38    C    0.47950992    0.42773004    0.50000000    -0.13790000
opls_145-39    C    0.50146001    0.39590009    0.50000000    -0.17230000
opls_142-40    C    0.59844992    0.22664997    0.50000000    0.10900000
opls_916-41    C    0.58184991    0.13760001    0.50000000    0.13500000
opls_916-42    C    0.52736988    0.11504988    0.50000000    0.18890000
opls_145-43    C    0.49614006    0.06157019    0.50000000    -0.21250000
opls_700-44    C    0.51737988    0.02832996    0.50000000    0.08830000
opls_145-45    C    0.57227021    0.05178009    0.50000000    -0.13790000
opls_145-46    C    0.60409981    0.10555979    0.50000000    -0.17230000
opls_142-47    C    0.77334973    0.37179976    0.50000000    0.10900000
opls_916-48    C    0.86240009    0.44426004    0.50000000    0.13500000
opls_916-49    C    0.88494987    0.41231981    0.50000000    0.18870000
opls_145-50    C    0.93842978    0.43457983    0.50000000    -0.21260000
opls_700-51    C    0.97166987    0.48903975    0.50000000    0.08580000
opls_145-52    C    0.94821988    0.52048986    0.50000000    -0.13790000
opls_145-53    C    0.89443999    0.49853973    0.50000000    -0.17230000
opls_280-54    C    0.61178003    0.31202997    0.50000000    0.25750000
opls_145-55    C    0.64488995    0.36771993    0.50000000    -0.10500000
opls_280-56    C    0.68796997    0.29974976    0.50000000    0.25750000
opls_145-57    C    0.63227006    0.27716010    0.50000000    -0.10500000
opls_280-58    C    0.70024980    0.38821987    0.50000000    0.25770000
opls_145-59    C    0.72284018    0.35511008    0.50000000    -0.10500000
opls_280-60    C    0.38821997    0.68797003    0.50000000    0.25750000
opls_145-61    C    0.35511005    0.63228007    0.50000000    -0.10500000
opls_280-62    C    0.31202983    0.70024984    0.50000000    0.25750000
opls_145-63    C    0.36772994    0.72283990    0.50000000    -0.10500000
opls_280-64    C    0.29975000    0.61177973    0.50000000    0.25750000
opls_145-65    C    0.27715982    0.64488992    0.50000000    -0.10490000
opls_144-66    H    0.34199985    0.55654984    0.50000000    0.09420000
opls_910-67    H    0.44634977    0.65776972    0.50000000    0.23510000
opls_146-68    H    0.52337001    0.64756975    0.50000000    0.09200000
opls_146-69    H    0.40815008    0.45309005    0.50000000    0.05680000
opls_146-70    H    0.56365989    0.59092010    0.50000000    0.05510000
opls_909-71    H    0.32846995    0.46609990    0.33193889    0.24490000
opls_909-72    H    0.33358984    0.51961002    0.66803056    0.24310000
opls_144-73    H    0.44345000    0.78545000    0.50000000    0.09420000
opls_910-74    H    0.34223004    0.78858003    0.50000000    0.23510000
opls_146-75    H    0.35242999    0.87579995    0.50000000    0.09200000
opls_146-76    H    0.54691000    0.95505981    0.50000000    0.05680000
opls_146-77    H    0.40907981    0.97274988    0.50000000    0.06370000
opls_909-78    H    0.48166003    0.81511988    0.32076944    0.24300000
opls_909-79    H    0.53268977    0.86128971    0.67926944    0.24300000
opls_144-80    H    0.21454996    0.65799976    0.50000000    0.09420000
opls_910-81    H    0.21141998    0.55364985    0.50000000    0.23520000
opls_146-82    H    0.12419980    0.47662991    0.50000000    0.09200000
opls_146-83    H    0.04493973    0.59184975    0.50000000    0.06040000
opls_146-84    H    0.02724984    0.43633990    0.50000000    0.05510000
opls_909-85    H    0.13768010    0.67151000    0.33078056    0.24300000
opls_909-86    H    0.18587013    0.66644005    0.66923889    0.24490000
opls_144-87    H    0.65799995    0.44344976    0.50000000    0.09420000
opls_910-88    H    0.55365003    0.34222988    0.50000000    0.23510000
opls_146-89    H    0.47662980    0.35242985    0.50000000    0.09200000
opls_146-90    H    0.59184992    0.54690995    0.50000000    0.05680000
opls_146-91    H    0.43634011    0.40907990    0.50000000    0.05510000
opls_909-92    H    0.66644020    0.48045005    0.66806111    0.24490000
opls_909-93    H    0.67152996    0.53394991    0.33196111    0.24310000
opls_144-94    H    0.55655000    0.21455000    0.50000000    0.09420000
opls_910-95    H    0.65776996    0.21141997    0.50000000    0.23510000
opls_146-96    H    0.64757001    0.12420005    0.50000000    0.09200000
opls_146-97    H    0.45308981    0.04493980    0.50000000    0.05680000
opls_146-98    H    0.59092019    0.02725012    0.50000000    0.06370000
opls_909-99    H    0.46731997    0.13872017    0.32078889    0.24480000
opls_909-100    H    0.51835005    0.18489000    0.67928889    0.24300000
opls_144-101    H    0.78544984    0.34199984    0.50000000    0.09420000
opls_910-102    H    0.78857982    0.44634975    0.50000000    0.23510000
opls_146-103    H    0.87580020    0.52337009    0.50000000    0.09200000
opls_146-104    H    0.95506007    0.40814986    0.50000000    0.06040000
opls_146-105    H    0.97275016    0.56366010    0.50000000    0.05510000
opls_909-106    H    0.81408998    0.33358010    0.33081944    0.24300000
opls_909-107    H    0.86227011    0.32848012    0.66926944    0.24300000
opls_281-108    O    0.56641002    0.29364978    0.50000000    -0.39680000
opls_281-109    O    0.70634993    0.27276011    0.50000000    -0.39690000
opls_281-110    O    0.72724004    0.43359010    0.50000000    -0.39690000
opls_281-111    O    0.43358978    0.70634982    0.50000000    -0.39690000
opls_281-112    O    0.29365007    0.72723989    0.50000000    -0.39680000
opls_281-113    O    0.27275996    0.56640990    0.50000000    -0.39690000
