#======================================================================
# Crystal Data Generated By AuToFF
#----------------------------------------------------------------------

data_AuToFF_phase_1

_cell_length_a                         22.1630
_cell_length_b                         22.1629
_cell_length_c                         3.4207
_cell_angle_alpha                      90.00
_cell_angle_beta                       90.00
_cell_angle_gamma                      120.00
_symmetry_space_group_name_H-M_alt     'P 1'
_symmetry_space_group_IT_number        1

loop_
_space_group_symop_operation_xyz
   'x, y, z'

loop_
   _atom_site_label
   _atom_site_type_symbol
   _atom_site_fract_x
   _atom_site_fract_y
   _atom_site_fract_z
   _atom_site_charge
opls_145-0    C    0.14520996    0.62588004    0.49999123    -0.09710000
opls_700-1    C    0.07327987    0.59117009    0.49999123    0.09910000
opls_145-2    C    0.03489000    0.62660997    0.49999123    -0.11570000
opls_145-3    C    0.37411996    0.51933011    0.49999123    -0.09710000
opls_700-4    C    0.40882991    0.48210995    0.49999123    0.09910000
opls_145-5    C    0.37339021    0.40828025    0.49999123    -0.11570000
opls_145-6    C    0.48067034    0.85479037    0.49999123    -0.09710000
opls_700-7    C    0.51788977    0.92671996    0.49999123    0.09910000
opls_145-8    C    0.59172005    0.96511030    0.49999123    -0.11570000
opls_145-9    C    0.85479004    0.37411996    0.49999123    -0.09710000
opls_700-10    C    0.92672013    0.40882991    0.49999123    0.09910000
opls_145-11    C    0.96511000    0.37339003    0.49999123    -0.11570000
opls_145-12    C    0.62588004    0.48066989    0.49999123    -0.09710000
opls_700-13    C    0.59117009    0.51789005    0.49999123    0.09910000
opls_145-14    C    0.62661005    0.59172027    0.49999123    -0.11570000
opls_145-15    C    0.51932992    0.14521016    0.49999123    -0.09710000
opls_700-16    C    0.48211023    0.07328004    0.49999123    0.09910000
opls_145-17    C    0.40828021    0.03489022    0.49999123    -0.11570000
opls_145-18    C    0.62588003    0.14521016    0.49999123    -0.09710000
opls_700-19    C    0.59116993    0.07328004    0.49999123    0.09910000
opls_145-20    C    0.62661031    0.03489022    0.49999123    -0.11570000
opls_145-21    C    0.51933004    0.37411996    0.49999123    -0.09710000
opls_700-22    C    0.48210974    0.40882991    0.49999123    0.09910000
opls_145-23    C    0.40828015    0.37339003    0.49999123    -0.11570000
opls_145-24    C    0.85478994    0.48066989    0.49999123    -0.09710000
opls_700-25    C    0.92671988    0.51789005    0.49999123    0.09910000
opls_145-26    C    0.96511026    0.59172027    0.49999123    -0.11570000
opls_145-27    C    0.37412023    0.85479037    0.49999123    -0.09710000
opls_700-28    C    0.40883007    0.92671996    0.49999123    0.09910000
opls_145-29    C    0.37338995    0.96511030    0.49999123    -0.11570000
opls_145-30    C    0.48066996    0.62588004    0.49999123    -0.09710000
opls_700-31    C    0.51789026    0.59117009    0.49999123    0.09910000
opls_145-32    C    0.59171985    0.62660997    0.49999123    -0.11570000
opls_145-33    C    0.14521006    0.51933011    0.49999123    -0.09710000
opls_700-34    C    0.07328012    0.48210995    0.49999123    0.09910000
opls_145-35    C    0.03489000    0.40828025    0.49999123    -0.11570000
opls_145-36    C    0.18206013    0.59102994    0.49999123    -0.22650000
opls_700-37    C    0.03650012    0.51825007    0.49999123    -0.00420000
opls_145-38    C    0.40896985    0.59102994    0.49999123    -0.22650000
opls_700-39    C    0.48174986    0.51825007    0.49999123    -0.00420000
opls_145-40    C    0.40897002    0.81794012    0.49999123    -0.22650000
opls_700-41    C    0.48175028    0.96350039    0.49999123    -0.00420000
opls_145-42    C    0.81793987    0.40897006    0.49999123    -0.22650000
opls_700-43    C    0.96349988    0.48174993    0.49999123    -0.00420000
opls_145-44    C    0.59103015    0.40897006    0.49999123    -0.22650000
opls_700-45    C    0.51825014    0.48174993    0.49999123    -0.00420000
opls_145-46    C    0.59102998    0.18205988    0.49999123    -0.22650000
opls_700-47    C    0.51824998    0.03650013    0.49999123    -0.00420000
opls_146-48    H    0.17408004    0.68527006    0.49999123    0.04560000
opls_146-49    H    0.06339009    0.68599999    0.49999123    0.04510000
opls_146-50    H    0.31473016    0.48881009    0.49999123    0.04560000
opls_146-51    H    0.31399999    0.37739031    0.49999123    0.04510000
opls_146-52    H    0.51119006    0.82592037    0.49999123    0.04560000
opls_146-53    H    0.62261018    0.93661022    0.49999123    0.04510000
opls_146-54    H    0.82591996    0.31472994    0.49999123    0.04560000
opls_146-55    H    0.93660991    0.31400001    0.49999123    0.04510000
opls_146-56    H    0.68526984    0.51118991    0.49999123    0.04560000
opls_146-57    H    0.68600027    0.62261021    0.49999123    0.04510000
opls_146-58    H    0.48881020    0.17408015    0.49999123    0.04560000
opls_146-59    H    0.37738982    0.06338978    0.49999123    0.04510000
opls_146-60    H    0.68527007    0.17408015    0.49999123    0.04560000
opls_146-61    H    0.68599967    0.06338978    0.49999123    0.04510000
opls_146-62    H    0.48880991    0.31472994    0.49999123    0.04560000
opls_146-63    H    0.37739004    0.31400001    0.49999123    0.04510000
opls_146-64    H    0.82592002    0.51118991    0.49999123    0.04560000
opls_146-65    H    0.93661029    0.62261021    0.49999123    0.04510000
opls_146-66    H    0.31473019    0.82592037    0.49999123    0.04560000
opls_146-67    H    0.31400033    0.93661022    0.49999123    0.04500000
opls_146-68    H    0.51119009    0.68527006    0.49999123    0.04560000
opls_146-69    H    0.62260996    0.68599999    0.49999123    0.04510000
opls_146-70    H    0.17407998    0.48881009    0.49999123    0.04560000
opls_146-71    H    0.06338997    0.37739031    0.49999123    0.04510000
MOF2_B_2-72    B    0.26176991    0.63089004    0.49999123    0.79980000
MOF2_B_2-73    B    0.36911007    0.63089004    0.49999123    0.79960000
MOF2_B_2-74    B    0.36911035    0.73823034    0.49999123    0.79970000
MOF2_B_2-75    B    0.73823008    0.36911986    0.49999123    0.79970000
MOF2_B_2-76    B    0.63087999    0.36911986    0.49999123    0.79970000
MOF2_B_2-77    B    0.63087999    0.26177018    0.49999123    0.79980000
opls_180-78    O    0.29790013    0.59581017    0.49999123    -0.52300000
opls_180-79    O    0.40419020    0.70210012    0.49999123    -0.52300000
opls_180-80    O    0.29789999    0.70210012    0.49999123    -0.52300000
opls_180-81    O    0.70209020    0.40419035    0.49999123    -0.52300000
opls_180-82    O    0.59581005    0.29791030    0.49999123    -0.52300000
opls_180-83    O    0.70209033    0.29791030    0.49999123    -0.52300000
