#======================================================================
# Crystal Data Generated By AuToFF
#----------------------------------------------------------------------

data_AuToFF_phase_1

_cell_length_a                         29.4000
_cell_length_b                         29.4000
_cell_length_c                         3.9900
_cell_angle_alpha                      90.00
_cell_angle_beta                       90.00
_cell_angle_gamma                      120.00
_symmetry_space_group_name_H-M_alt     'P 1'
_symmetry_space_group_IT_number        1

loop_
_space_group_symop_operation_xyz
   'x, y, z'

loop_
   _atom_site_label
   _atom_site_type_symbol
   _atom_site_fract_x
   _atom_site_fract_y
   _atom_site_fract_z
   _atom_site_charge
opls_700-0    C    0.26936997    0.15036988    0.77567920    -0.19660000
opls_166-1    C    0.28629996    0.11304006    0.76395990    0.25130000
opls_145-2    C    0.33859998    0.12969995    0.67774937    -0.21570000
opls_700-3    C    0.37300017    0.18169014    0.58048120    -0.13220000
opls_166-4    C    0.35436992    0.21730990    0.54979950    0.25570000
opls_145-5    C    0.30268013    0.20127999    0.65358897    -0.22610000
opls_182-6    C    0.36922014    0.30280015    0.35678947    0.05560000
opls_136-7    C    0.41401996    0.35465012    0.22445113    -0.29220000
opls_139-8    C    0.39578005    0.39447983    0.16141103    0.51880000
opls_962-9    C    0.44147010    0.44723000    0.04309023    0.48150000
opls_962-10    C    0.42319977    0.48687981    0.97431078    0.46430000
opls_961-11    C    0.46866990    0.53946974    0.85740100    0.49620000
opls_182-12    C    0.25379002    0.01923990    0.67947118    0.06310000
opls_136-13    C    0.19788991    0.97731996    0.58338095    -0.29430000
opls_139-14    C    0.19359002    0.92502970    0.48204010    0.52000000
opls_962-15    C    0.13622002    0.88392983    0.40496992    0.48060000
opls_962-16    C    0.13071991    0.83136975    0.29711028    0.46430000
opls_961-17    C    0.07349986    0.79063986    0.22396992    0.49620000
opls_234-18    C    0.42881013    0.19828012    0.51938095    0.51810000
opls_142-19    C    0.55832996    0.30677012    0.66423058    0.02120000
opls_700-20    C    0.61360008    0.31996002    0.64635088    0.06100000
opls_145-21    C    0.62722989    0.28051011    0.64597995    -0.14630000
opls_234-22    C    0.21597994    0.13668982    0.89365915    0.51990000
opls_142-23    C    0.11086012    0.04211004    0.40420050    0.04100000
opls_700-24    C    0.05450003    0.02105993    0.44636090    0.06420000
opls_145-25    C    0.03337005    0.05445983    0.44967920    -0.14190000
opls_700-26    C    0.84962999    0.11900012    0.77567920    -0.19660000
opls_166-27    C    0.88695995    0.17326005    0.76395990    0.25130000
opls_145-28    C    0.87029992    0.20889983    0.67774937    -0.21570000
opls_700-29    C    0.81831005    0.19130990    0.58048120    -0.13220000
opls_166-30    C    0.78268976    0.13705980    0.54979950    0.25570000
opls_145-31    C    0.79872006    0.10139998    0.65358897    -0.22610000
opls_182-32    C    0.69720014    0.06642002    0.35678947    0.05560000
opls_136-33    C    0.64535000    0.05937006    0.22445113    -0.29220000
opls_139-34    C    0.60552008    0.00130002    0.16141103    0.51880000
opls_962-35    C    0.55276993    0.99423985    0.04309023    0.48150000
opls_962-36    C    0.51311979    0.93631984    0.97431078    0.46430000
opls_961-37    C    0.46052992    0.92919998    0.85740100    0.49620000
opls_182-38    C    0.98075998    0.23454989    0.67947118    0.06310000
opls_136-39    C    0.02267998    0.22057016    0.58338095    -0.29430000
opls_139-40    C    0.07497021    0.26856014    0.48204010    0.52000000
opls_962-41    C    0.11607010    0.25228986    0.40496992    0.48060000
opls_962-42    C    0.16863000    0.29934979    0.29711028    0.46430000
opls_961-43    C    0.20935991    0.28285997    0.22396992    0.49620000
opls_234-44    C    0.80172012    0.23053004    0.51938095    0.51810000
opls_142-45    C    0.69323006    0.25156012    0.66423058    0.02120000
opls_700-46    C    0.68004003    0.29363992    0.64635088    0.06100000
opls_145-47    C    0.71948993    0.34672000    0.64597995    -0.14630000
opls_234-48    C    0.86330988    0.07928982    0.89365915    0.51990000
opls_142-49    C    0.95788989    0.06874984    0.40420050    0.04100000
opls_700-50    C    0.97894005    0.03343997    0.44636090    0.06420000
opls_145-51    C    0.94553995    0.97890983    0.44967920    -0.14190000
opls_700-52    C    0.88100003    0.73063000    0.77567920    -0.19660000
opls_166-53    C    0.82674008    0.71369989    0.76395990    0.25130000
opls_145-54    C    0.79109991    0.66139982    0.67774937    -0.21570000
opls_700-55    C    0.80869012    0.62699996    0.58048120    -0.13220000
opls_166-56    C    0.86294013    0.64562991    0.54979950    0.25570000
opls_145-57    C    0.89860015    0.69732003    0.65358897    -0.22610000
opls_182-58    C    0.93358005    0.63077984    0.35678947    0.05560000
opls_136-59    C    0.94063004    0.58597982    0.22445113    -0.29220000
opls_139-60    C    0.99870002    0.60421976    0.16141103    0.51880000
opls_962-61    C    0.00575978    0.55852976    0.04309023    0.48150000
opls_962-62    C    0.06367991    0.57679995    0.97431078    0.46430000
opls_961-63    C    0.07079998    0.53132989    0.85740100    0.49620000
opls_182-64    C    0.76544980    0.74620981    0.67947118    0.06310000
opls_136-65    C    0.77942977    0.80210988    0.58338095    -0.29430000
opls_139-66    C    0.73143992    0.80640977    0.48204010    0.52000000
opls_962-67    C    0.74771003    0.86377992    0.40496992    0.48060000
opls_962-68    C    0.70064989    0.86928006    0.29711028    0.46430000
opls_961-69    C    0.71714003    0.92649978    0.22396992    0.49620000
opls_234-70    C    0.76947009    0.57118983    0.51938095    0.51810000
opls_142-71    C    0.74843998    0.44166976    0.66423058    0.02120000
opls_700-72    C    0.70635990    0.38640006    0.64635088    0.06100000
opls_145-73    C    0.65327984    0.37276989    0.64597995    -0.14630000
opls_234-74    C    0.92070998    0.78401997    0.89365915    0.51990000
opls_142-75    C    0.93124980    0.88913973    0.40420050    0.04100000
opls_700-76    C    0.96655972    0.94549971    0.44636090    0.06420000
opls_145-77    C    0.02108980    0.96662994    0.44967920    -0.14190000
opls_179-78    O    0.38853976    0.26755979    0.41534085    -0.18710000
opls_179-79    O    0.25135998    0.06054990    0.85433083    -0.19850000
opls_236-80    O    0.43998988    0.16834982    0.37807018    -0.32320000
opls_236-81    O    0.19475012    0.15964990    0.77511028    -0.33620000
opls_179-82    O    0.73244000    0.12098000    0.41534085    -0.18710000
opls_179-83    O    0.93944986    0.19080992    0.85433083    -0.19850000
opls_236-84    O    0.83165000    0.27164013    0.37807018    -0.32320000
opls_236-85    O    0.84035007    0.03510014    0.77511028    -0.33620000
opls_179-86    O    0.87902004    0.61145981    0.41534085    -0.18710000
opls_179-87    O    0.80918996    0.74863979    0.85433083    -0.19850000
opls_236-88    O    0.72836013    0.56001005    0.37807018    -0.32320000
opls_236-89    O    0.96490015    0.80524996    0.77511028    -0.33620000
opls_238-90    N    0.46786015    0.24584003    0.63173935    -0.23630000
opls_750-91    N    0.52072002    0.25974004    0.59715038    -0.15760000
opls_238-92    N    0.19036005    0.09925003    0.13351880    -0.23860000
opls_750-93    N    0.13757989    0.08179992    0.20781955    -0.15790000
opls_238-94    N    0.75415991    0.22201982    0.63173935    -0.23640000
opls_750-95    N    0.74026005    0.26097996    0.59715038    -0.15760000
opls_238-96    N    0.90074999    0.09111018    0.13351880    -0.23860000
opls_750-97    N    0.91819981    0.05577988    0.20781955    -0.15790000
opls_238-98    N    0.77797974    0.53213975    0.63173935    -0.23630000
opls_750-99    N    0.73901993    0.47928000    0.59715038    -0.15760000
opls_238-100    N    0.90888996    0.80963978    0.13351880    -0.23860000
opls_750-101    N    0.94421977    0.86241980    0.20781955    -0.15790000
opls_965-102    F    0.37920993    0.40060013    0.39555890    -0.24630000
opls_965-103    F    0.36407998    0.37868989    0.97026065    -0.24630000
opls_965-104    F    0.45850001    0.44102996    0.81127068    -0.24610000
opls_965-105    F    0.47276990    0.46327994    0.23688972    -0.24630000
opls_965-106    F    0.40612004    0.49339994    0.20489975    -0.24610000
opls_965-107    F    0.39214977    0.47117982    0.77908020    -0.24600000
opls_965-108    F    0.48797007    0.53392993    0.63496992    -0.25810000
opls_965-109    F    0.49831984    0.55800975    0.05937093    -0.25790000
opls_965-110    F    0.45372998    0.56625997    0.78962907    -0.25780000
opls_965-111    F    0.20831982    0.91044984    0.68779950    -0.24610000
opls_965-112    F    0.21841011    0.93123995    0.25828070    -0.24630000
opls_965-113    F    0.12118980    0.89891973    0.20305013    -0.24630000
opls_965-114    F    0.11169986    0.87763986    0.63071930    -0.24620000
opls_965-115    F    0.14563015    0.81598003    0.49714035    -0.24620000
opls_965-116    F    0.15457013    0.83723005    0.06898997    -0.24630000
opls_965-117    F    0.07113977    0.75422988    0.12466917    -0.25800000
opls_965-118    F    0.05671004    0.80587994    0.03556892    -0.25790000
opls_965-119    F    0.04964010    0.78072986    0.45621053    -0.25790000
opls_965-120    F    0.59939978    0.97860976    0.39555890    -0.24630000
opls_965-121    F    0.62130991    0.98538990    0.97026065    -0.24630000
opls_965-122    F    0.55897011    0.01747015    0.81127068    -0.24610000
opls_965-123    F    0.53671990    0.00949014    0.23688972    -0.24630000
opls_965-124    F    0.50660012    0.91271997    0.20489975    -0.24600000
opls_965-125    F    0.52881993    0.92096979    0.77908020    -0.24600000
opls_965-126    F    0.46606989    0.95403978    0.63496992    -0.25810000
opls_965-127    F    0.44198996    0.94030984    0.05937093    -0.25800000
opls_965-128    F    0.43373997    0.88746973    0.78962907    -0.25780000
opls_965-129    F    0.08954991    0.29786989    0.68779950    -0.24610000
opls_965-130    F    0.06876020    0.28717006    0.25828070    -0.24630000
opls_965-131    F    0.10107990    0.22227001    0.20305013    -0.24630000
opls_965-132    F    0.12236000    0.23406013    0.63071930    -0.24620000
opls_965-133    F    0.18401994    0.32965007    0.49714035    -0.24620000
opls_965-134    F    0.16276997    0.31733995    0.06898997    -0.24630000
opls_965-135    F    0.24576991    0.31690988    0.12466917    -0.25800000
opls_965-136    F    0.19412010    0.25082999    0.03556892    -0.25790000
opls_965-137    F    0.21927001    0.26891008    0.45621053    -0.25790000
opls_965-138    F    0.02138995    0.62079011    0.39555890    -0.24630000
opls_965-139    F    0.01460991    0.63591982    0.97026065    -0.24630000
opls_965-140    F    0.98252988    0.54149989    0.81127068    -0.24610000
opls_965-141    F    0.99050986    0.52722992    0.23688972    -0.24630000
opls_965-142    F    0.08728018    0.59388009    0.20489975    -0.24600000
opls_965-143    F    0.07903010    0.60785000    0.77908020    -0.24600000
opls_965-144    F    0.04595985    0.51202990    0.63496992    -0.25810000
opls_965-145    F    0.05969001    0.50168001    0.05937093    -0.25790000
opls_965-146    F    0.11252985    0.54626991    0.78962907    -0.25780000
opls_965-147    F    0.70213007    0.79167987    0.68779950    -0.24610000
opls_965-148    F    0.71283003    0.78158999    0.25828070    -0.24630000
opls_965-149    F    0.77772977    0.87880987    0.20305013    -0.24630000
opls_965-150    F    0.76594014    0.88830002    0.63071930    -0.24620000
opls_965-151    F    0.67034991    0.85436989    0.49714035    -0.24620000
opls_965-152    F    0.68265990    0.84543000    0.06898997    -0.24630000
opls_965-153    F    0.68308979    0.92885985    0.12466917    -0.25800000
opls_965-154    F    0.74917021    0.94329007    0.03556892    -0.25790000
opls_965-155    F    0.73108989    0.95036006    0.45621053    -0.25790000
opls_146-156    H    0.35312000    0.10243999    0.69729073    0.13400000
opls_146-157    H    0.28789013    0.22829998    0.64474937    0.13910000
opls_185-158    H    0.35476989    0.31070985    0.59380952    0.06820000
opls_185-159    H    0.33672993    0.28554013    0.17106015    0.06730000
opls_140-160    H    0.42928996    0.34717992    0.98888972    0.12740000
opls_140-161    H    0.44655985    0.37089998    0.40989975    0.13540000
opls_185-162    H    0.27113011    0.00212009    0.84994987    0.06710000
opls_185-163    H    0.27806991    0.03317996    0.44822055    0.06740000
opls_140-164    H    0.18495001    0.99228982    0.37057895    0.14740000
opls_140-165    H    0.17117006    0.97055985    0.79786967    0.12300000
opls_910-166    H    0.45847983    0.27073993    0.76419048    0.29810000
opls_144-167    H    0.54922986    0.33692979    0.73540100    0.13510000
opls_146-168    H    0.59680991    0.23953003    0.65193985    0.13180000
opls_910-169    H    0.20965004    0.08301982    0.26239098    0.30280000
opls_144-170    H    0.12855998    0.02083017    0.51003008    0.13200000
opls_146-171    H    0.05920984    0.09665981    0.43884962    0.13370000
opls_146-172    H    0.89756005    0.25067996    0.69729073    0.13400000
opls_146-173    H    0.77170010    0.05959000    0.64474937    0.13910000
opls_185-174    H    0.68928990    0.04406007    0.59380952    0.06820000
opls_185-175    H    0.71446004    0.05119015    0.17106015    0.06730000
opls_140-176    H    0.65281987    0.08210980    0.98888972    0.12740000
opls_140-177    H    0.62910006    0.07565998    0.40989975    0.13540000
opls_185-178    H    0.99787975    0.26900984    0.84994987    0.06710000
opls_185-179    H    0.96682015    0.24488996    0.44822055    0.06740000
opls_140-180    H    0.00770983    0.19265980    0.37057895    0.14740000
opls_140-181    H    0.02944001    0.20060995    0.79786967    0.12300000
opls_910-182    H    0.72926021    0.18774015    0.76419048    0.29810000
opls_144-183    H    0.66307003    0.21229992    0.73540100    0.13510000
opls_146-184    H    0.76046994    0.35728001    0.65193985    0.13180000
opls_910-185    H    0.91698006    0.12663018    0.26239098    0.30280000
opls_144-186    H    0.97917011    0.10773001    0.51003008    0.13200000
opls_146-187    H    0.90333997    0.96255000    0.43884962    0.13370000
opls_146-188    H    0.74931996    0.64688005    0.69729073    0.13400000
opls_146-189    H    0.94041011    0.71211002    0.64474937    0.13910000
opls_185-190    H    0.95594021    0.64523009    0.59380952    0.06820000
opls_185-191    H    0.94880969    0.66326973    0.17106015    0.06730000
opls_140-192    H    0.91788998    0.57070989    0.98888972    0.12740000
opls_140-193    H    0.92434009    0.55344004    0.40989975    0.13540000
opls_185-194    H    0.73099013    0.72887006    0.84994987    0.06710000
opls_185-195    H    0.75510994    0.72193008    0.44822055    0.06740000
opls_140-196    H    0.80733996    0.81504999    0.37057895    0.14740000
opls_140-197    H    0.79939007    0.82882981    0.79786967    0.12300000
opls_910-198    H    0.81225996    0.54151992    0.76419048    0.29810000
opls_144-199    H    0.78769992    0.45076990    0.73540100    0.13510000
opls_146-200    H    0.64272015    0.40318996    0.65193985    0.13180000
opls_910-201    H    0.87336990    0.79035000    0.26239098    0.30280000
opls_144-202    H    0.89226991    0.87143982    0.51003008    0.13200000
opls_146-203    H    0.03745000    0.94078979    0.43884962    0.13370000
