#======================================================================
# Crystal Data Generated By AuToFF
#----------------------------------------------------------------------

data_AuToFF_phase_1

_cell_length_a                         37.8006
_cell_length_b                         43.2645
_cell_length_c                         3.9593
_cell_angle_alpha                      90.00
_cell_angle_beta                       90.00
_cell_angle_gamma                      90.00
_symmetry_space_group_name_H-M_alt     'P 1'
_symmetry_space_group_IT_number        1

loop_
_space_group_symop_operation_xyz
   'x, y, z'

loop_
   _atom_site_label
   _atom_site_type_symbol
   _atom_site_fract_x
   _atom_site_fract_y
   _atom_site_fract_z
   _atom_site_charge
opls_700-0    C    0.96742988    0.46669001    0.46389008    -0.00040000
opls_700-1    C    0.46742988    0.96669001    0.46389008    -0.00040000
opls_700-2    C    0.03260001    0.53331993    0.46389008    -0.00040000
opls_700-3    C    0.53260001    0.03331993    0.46389008    -0.00040000
opls_700-4    C    0.96742988    0.53331993    0.46389008    -0.00040000
opls_700-5    C    0.46742988    0.03331993    0.46389008    -0.00040000
opls_700-6    C    0.03260001    0.46669001    0.46389008    -0.00150000
opls_700-7    C    0.53260001    0.96669001    0.46389008    -0.00150000
opls_145-8    C    0.93633990    0.51614996    0.40142955    -0.22240000
opls_145-9    C    0.43633990    0.01614002    0.40142955    -0.22240000
opls_145-10    C    0.06368999    0.48385998    0.40142955    -0.22240000
opls_145-11    C    0.56368999    0.98385998    0.40142955    -0.22240000
opls_145-12    C    0.93633990    0.48385998    0.40142955    -0.22240000
opls_145-13    C    0.43633990    0.98385998    0.40142955    -0.22240000
opls_145-14    C    0.06368999    0.51614996    0.40142955    -0.22240000
opls_145-15    C    0.56368999    0.01614996    0.40142955    -0.22240000
opls_700-16    C    0.96703994    0.56597996    0.51628066    -0.00040000
opls_700-17    C    0.46703994    0.06597996    0.51628066    -0.00040000
opls_700-18    C    0.03297990    0.43402004    0.51628066    0.01590000
opls_700-19    C    0.53297990    0.93402004    0.51628066    0.01590000
opls_700-20    C    0.96703994    0.43402004    0.51628066    -0.00150000
opls_700-21    C    0.46703994    0.93402004    0.51628066    -0.00150000
opls_700-22    C    0.03297990    0.56597996    0.51628066    -0.00150000
opls_700-23    C    0.53297990    0.06597996    0.51628066    -0.00150000
opls_700-24    C    0.93613990    0.58486010    0.53434951    0.05700000
opls_700-25    C    0.43613990    0.08486010    0.53434951    0.05700000
opls_700-26    C    0.06388999    0.41513990    0.53434951    0.06320000
opls_700-27    C    0.56388999    0.91513990    0.53434951    0.06320000
opls_700-28    C    0.93613990    0.41513990    0.53434951    0.05700000
opls_700-29    C    0.43613990    0.91513990    0.53434951    0.05700000
opls_700-30    C    0.06388999    0.58486010    0.53434951    0.06320000
opls_700-31    C    0.56388999    0.08486010    0.53434951    0.06320000
opls_145-32    C    0.90592001    0.57621006    0.72310004    -0.22240000
opls_145-33    C    0.40592001    0.07621006    0.72310004    -0.22240000
opls_145-34    C    0.09410988    0.42378994    0.72310004    -0.22240000
opls_145-35    C    0.59410988    0.92378994    0.72310004    -0.22240000
opls_145-36    C    0.90592001    0.42378994    0.72310004    -0.22240000
opls_145-37    C    0.40592001    0.92378994    0.72310004    -0.22240000
opls_145-38    C    0.09410988    0.57621006    0.72310004    -0.22240000
opls_145-39    C    0.59410988    0.07621006    0.72310004    -0.22240000
opls_145-40    C    0.87545991    0.59488010    0.73640037    -0.19790000
opls_145-41    C    0.37545991    0.09488010    0.73640037    -0.19790000
opls_145-42    C    0.12456998    0.40511990    0.73640037    -0.19790000
opls_145-43    C    0.62456998    0.90511990    0.73640037    -0.19790000
opls_145-44    C    0.87545991    0.40511990    0.73640037    -0.19790000
opls_145-45    C    0.37545991    0.90511990    0.73640037    -0.19790000
opls_145-46    C    0.12456998    0.59488010    0.73640037    -0.19790000
opls_145-47    C    0.62456998    0.09488010    0.73640037    -0.19790000
opls_700-48    C    0.87449988    0.62386992    0.57235117    0.04780000
opls_700-49    C    0.37449988    0.12386992    0.57235117    0.04780000
opls_700-50    C    0.12553002    0.37613008    0.57235117    0.04760000
opls_700-51    C    0.62553002    0.87613008    0.57235117    0.04760000
opls_700-52    C    0.87449988    0.37613008    0.57235117    0.04760000
opls_700-53    C    0.37449988    0.87613008    0.57235117    0.04760000
opls_700-54    C    0.12553002    0.62386992    0.57235117    0.04780000
opls_700-55    C    0.62553002    0.12386992    0.57235117    0.04780000
opls_145-56    C    0.90483987    0.63318009    0.39010936    -0.19770000
opls_145-57    C    0.40483987    0.13318009    0.39010936    -0.19790000
opls_145-58    C    0.09519002    0.36681991    0.39010936    -0.19770000
opls_145-59    C    0.59519002    0.86681991    0.39010936    -0.19770000
opls_145-60    C    0.90483987    0.36681991    0.39010936    -0.19770000
opls_145-61    C    0.40483987    0.86681991    0.39010936    -0.19790000
opls_145-62    C    0.09519002    0.63318009    0.39010936    -0.19770000
opls_145-63    C    0.59519002    0.13318009    0.39010936    -0.19770000
opls_145-64    C    0.93474998    0.61390008    0.36804991    -0.19750000
opls_145-65    C    0.43473992    0.11390008    0.36804991    -0.19750000
opls_145-66    C    0.06527992    0.38609992    0.36804991    -0.19750000
opls_145-67    C    0.56527992    0.88609992    0.36804991    -0.19750000
opls_145-68    C    0.93474998    0.38609992    0.36804991    -0.19750000
opls_145-69    C    0.43473992    0.88609992    0.36804991    -0.19750000
opls_145-70    C    0.06527992    0.61390008    0.36804991    -0.19750000
opls_145-71    C    0.56527992    0.11390008    0.36804991    -0.19750000
opls_142-72    C    0.84401994    0.64253996    0.59443083    0.09430000
opls_142-73    C    0.34401994    0.14253996    0.59443083    0.09430000
opls_142-74    C    0.15600996    0.35746998    0.59443083    0.09430000
opls_142-75    C    0.65600996    0.85746998    0.59443083    0.09430000
opls_142-76    C    0.84401994    0.35746998    0.59443083    0.09430000
opls_142-77    C    0.34401994    0.85746998    0.59443083    0.09430000
opls_142-78    C    0.15600996    0.64253996    0.59443083    0.09430000
opls_142-79    C    0.65600996    0.14253996    0.59443083    0.09430000
opls_145-80    C    0.00001005    0.58086006    0.55987927    -0.09810000
opls_145-81    C    0.50001005    0.08086006    0.55987927    -0.09810000
opls_145-82    C    0.00001005    0.41913994    0.55987927    -0.09810000
opls_145-83    C    0.50001005    0.91913994    0.55987927    -0.09810000
opls_700-84    C    0.00001005    0.48339008    0.46596115    -0.00130000
opls_700-85    C    0.50001005    0.98339008    0.46596115    -0.00130000
opls_700-86    C    0.00001005    0.51660992    0.46596115    -0.00120000
opls_700-87    C    0.50001005    0.01660992    0.46596115    -0.00120000
opls_522-88    C    0.18373994    0.30764992    0.45427980    0.12400000
opls_523-89    C    0.17489008    0.27715009    0.36353901    -0.22960000
opls_522-90    C    0.20093993    0.25388991    0.35446922    -0.20030000
opls_521-91    C    0.23648011    0.26124005    0.43200061    0.12080000
opls_521-92    C    0.21959995    0.31401010    0.52692900    0.02560000
opls_522-93    C    0.68373994    0.80764992    0.45427980    0.12400000
opls_523-94    C    0.67489008    0.77715009    0.36353901    -0.22960000
opls_522-95    C    0.70093993    0.75388991    0.35446922    -0.20030000
opls_521-96    C    0.73648011    0.76124005    0.43200061    0.12080000
opls_521-97    C    0.71959995    0.81401010    0.52692900    0.02560000
opls_522-98    C    0.81628995    0.69236002    0.45427980    0.12400000
opls_523-99    C    0.82514008    0.72284991    0.36353901    -0.23060000
opls_522-100    C    0.79908996    0.74611009    0.35446922    -0.20030000
opls_521-101    C    0.76354000    0.73875995    0.43200061    0.12910000
opls_521-102    C    0.78041989    0.68598990    0.52692900    0.02560000
opls_522-103    C    0.31628995    0.19236002    0.45427980    0.12400000
opls_523-104    C    0.32514008    0.22284991    0.36353901    -0.23060000
opls_522-105    C    0.29908996    0.24611009    0.35446922    -0.20030000
opls_521-106    C    0.26354000    0.23875995    0.43200061    0.12910000
opls_521-107    C    0.28041989    0.18598990    0.52692900    0.02560000
opls_522-108    C    0.18373994    0.69236002    0.45427980    0.12400000
opls_523-109    C    0.17489008    0.72284991    0.36353901    -0.23060000
opls_522-110    C    0.20093993    0.74611009    0.35446922    -0.20030000
opls_521-111    C    0.23648011    0.73875995    0.43200061    0.12080000
opls_521-112    C    0.21959995    0.68598990    0.52692900    0.02560000
opls_522-113    C    0.68373994    0.19236002    0.45427980    0.12400000
opls_523-114    C    0.67489008    0.22284991    0.36353901    -0.23060000
opls_522-115    C    0.70093993    0.24611009    0.35446922    -0.20030000
opls_521-116    C    0.73648011    0.23875995    0.43200061    0.12080000
opls_521-117    C    0.71959995    0.18598990    0.52692900    0.02560000
opls_522-118    C    0.81628995    0.30764992    0.45427980    0.12400000
opls_523-119    C    0.82514008    0.27715009    0.36353901    -0.22960000
opls_522-120    C    0.79908996    0.25388991    0.35446922    -0.20020000
opls_521-121    C    0.76354000    0.26124005    0.43200061    0.12910000
opls_521-122    C    0.78041989    0.31401010    0.52692900    0.02560000
opls_522-123    C    0.31628995    0.80764992    0.45427980    0.12400000
opls_523-124    C    0.32514008    0.77715009    0.36353901    -0.22960000
opls_522-125    C    0.29908996    0.75388991    0.35446922    -0.20030000
opls_521-126    C    0.26354000    0.76124005    0.43200061    0.12910000
opls_521-127    C    0.28041989    0.81401010    0.52692900    0.02560000
opls_146-128    H    0.91279001    0.52679009    0.35653019    0.20470000
opls_146-129    H    0.41279001    0.02679009    0.35653019    0.20450000
opls_146-130    H    0.08723989    0.47320991    0.35653019    0.20450000
opls_146-131    H    0.58723989    0.97320991    0.35653019    0.20450000
opls_146-132    H    0.91279001    0.47320991    0.35653019    0.20450000
opls_146-133    H    0.41279001    0.97320991    0.35653019    0.20450000
opls_146-134    H    0.08723989    0.52679009    0.35653019    0.20470000
opls_146-135    H    0.58723989    0.02679009    0.35653019    0.20470000
opls_146-136    H    0.90589991    0.55614002    0.85751017    0.20450000
opls_146-137    H    0.40589991    0.05614002    0.85751017    0.20450000
opls_146-138    H    0.09412999    0.44385998    0.85751017    0.20450000
opls_146-139    H    0.59412999    0.94385998    0.85751017    0.20450000
opls_146-140    H    0.90589991    0.44385998    0.85751017    0.20450000
opls_146-141    H    0.40589991    0.94385998    0.85751017    0.20450000
opls_146-142    H    0.09412999    0.55614002    0.85751017    0.20450000
opls_146-143    H    0.59412999    0.05614002    0.85751017    0.20450000
opls_146-144    H    0.85417004    0.58729004    0.87307100    0.20470000
opls_146-145    H    0.35417004    0.08729004    0.87307100    0.20450000
opls_146-146    H    0.14586012    0.41270996    0.87307100    0.20450000
opls_146-147    H    0.64586012    0.91270996    0.87307100    0.20450000
opls_146-148    H    0.85417004    0.41270996    0.87307100    0.20450000
opls_146-149    H    0.35417004    0.91270996    0.87307100    0.20450000
opls_146-150    H    0.14586012    0.58729004    0.87307100    0.20450000
opls_146-151    H    0.64586012    0.08729004    0.87307100    0.20450000
opls_146-152    H    0.90519992    0.65399993    0.26719117    0.20450000
opls_146-153    H    0.40519992    0.15399993    0.26719117    0.20450000
opls_146-154    H    0.09482998    0.34600007    0.26719117    0.20460000
opls_146-155    H    0.59482998    0.84600007    0.26719117    0.20450000
opls_146-156    H    0.90519992    0.34600007    0.26719117    0.20450000
opls_146-157    H    0.40519992    0.84600007    0.26719117    0.20450000
opls_146-158    H    0.09482998    0.65399993    0.26719117    0.20450000
opls_146-159    H    0.59482998    0.15399993    0.26719117    0.20450000
opls_146-160    H    0.95559012    0.62128997    0.22420125    0.20450000
opls_146-161    H    0.45559012    0.12128997    0.22420125    0.20450000
opls_146-162    H    0.04444004    0.37871003    0.22420125    0.20450000
opls_146-163    H    0.54444004    0.87871003    0.22420125    0.20450000
opls_146-164    H    0.95559012    0.37871003    0.22420125    0.20450000
opls_146-165    H    0.45559012    0.87871003    0.22420125    0.20450000
opls_146-166    H    0.04444004    0.62128997    0.22420125    0.20450000
opls_146-167    H    0.54444004    0.12128997    0.22420125    0.20450000
opls_144-168    H    0.82229012    0.63403992    0.71736923    0.10020000
opls_144-169    H    0.32229012    0.13403992    0.71736923    0.10020000
opls_144-170    H    0.17774004    0.36596008    0.71736923    0.09960000
opls_144-171    H    0.67772998    0.86596008    0.71736923    0.09960000
opls_144-172    H    0.82229012    0.36596008    0.71736923    0.09960000
opls_144-173    H    0.32229012    0.86596008    0.71736923    0.09960000
opls_144-174    H    0.17774004    0.63403992    0.71736923    0.10020000
opls_144-175    H    0.67772998    0.13403992    0.71736923    0.09960000
opls_146-176    H    0.00001005    0.60377007    0.62597934    0.20450000
opls_146-177    H    0.50001005    0.10377007    0.62597934    0.20460000
opls_146-178    H    0.00001005    0.39622993    0.62597934    0.20450000
opls_146-179    H    0.50001005    0.89622993    0.62597934    0.20450000
opls_526-180    H    0.14926006    0.27179004    0.30516000    0.20450000
opls_525-181    H    0.19400010    0.23180991    0.28994014    0.20450000
opls_524-182    H    0.22762998    0.33572999    0.59007905    0.10020000
opls_526-183    H    0.64926006    0.77179004    0.30516000    0.20450000
opls_525-184    H    0.69400010    0.73180991    0.28994014    0.20450000
opls_524-185    H    0.72762998    0.83572999    0.59007905    0.10020000
opls_526-186    H    0.85077009    0.72820996    0.30516000    0.20450000
opls_525-187    H    0.80603006    0.76819009    0.28994014    0.20450000
opls_524-188    H    0.77239991    0.66427001    0.59007905    0.10020000
opls_526-189    H    0.35077009    0.22820996    0.30516000    0.20450000
opls_525-190    H    0.30603006    0.26819009    0.28994014    0.20450000
opls_524-191    H    0.27239991    0.16427001    0.59007905    0.10020000
opls_526-192    H    0.14926006    0.72820996    0.30516000    0.20450000
opls_525-193    H    0.19400010    0.76819009    0.28994014    0.20450000
opls_524-194    H    0.22762998    0.66427001    0.59007905    0.10020000
opls_526-195    H    0.64926006    0.22820996    0.30516000    0.20450000
opls_525-196    H    0.69400010    0.26819009    0.28994014    0.20450000
opls_524-197    H    0.72762998    0.16427001    0.59007905    0.10020000
opls_526-198    H    0.85077009    0.27179004    0.30516000    0.20450000
opls_525-199    H    0.80603006    0.23180991    0.28994014    0.20450000
opls_524-200    H    0.77239991    0.33572999    0.59007905    0.10020000
opls_526-201    H    0.35077009    0.77179004    0.30516000    0.20450000
opls_525-202    H    0.30603006    0.73180991    0.28994014    0.20450000
opls_524-203    H    0.27239991    0.83572999    0.59007905    0.10020000
opls_750-204    N    0.84294006    0.67142993    0.46360973    -0.34300000
opls_750-205    N    0.34294006    0.17142993    0.46360973    -0.34300000
opls_750-206    N    0.15709010    0.32857007    0.46360973    -0.34450000
opls_750-207    N    0.65708005    0.82857007    0.46360973    -0.35910000
opls_750-208    N    0.84294006    0.32857007    0.46360973    -0.34450000
opls_750-209    N    0.34294006    0.82857007    0.46360973    -0.34450000
opls_750-210    N    0.15709010    0.67142993    0.46360973    -0.34300000
opls_750-211    N    0.65708005    0.17142993    0.46360973    -0.35910000
opls_520-212    N    0.24419004    0.29115002    0.51234057    -0.34740000
opls_520-213    N    0.74419004    0.79115002    0.51234057    -0.34740000
opls_520-214    N    0.75583007    0.70884998    0.51234057    -0.34740000
opls_520-215    N    0.25583007    0.20884998    0.51234057    -0.34740000
opls_520-216    N    0.24419004    0.70884998    0.51234057    -0.34740000
opls_520-217    N    0.74419004    0.20884998    0.51234057    -0.34740000
opls_520-218    N    0.75583007    0.29115002    0.51234057    -0.34740000
opls_520-219    N    0.25583007    0.79115002    0.51234057    -0.34740000
