#======================================================================
# Crystal Data Generated By AuToFF
#----------------------------------------------------------------------

data_AuToFF_phase_1

_cell_length_a                         40.5302
_cell_length_b                         40.5302
_cell_length_c                         7.1003
_cell_angle_alpha                      90.00
_cell_angle_beta                       90.00
_cell_angle_gamma                      90.00
_symmetry_space_group_name_H-M_alt     'P 1'
_symmetry_space_group_IT_number        1

loop_
_space_group_symop_operation_xyz
   'x, y, z'

loop_
   _atom_site_label
   _atom_site_type_symbol
   _atom_site_fract_x
   _atom_site_fract_y
   _atom_site_fract_z
   _atom_site_charge
opls_145-0    C    0.52540007    0.46593997    0.26628030    -0.13230000
opls_145-1    C    0.52623994    0.43896995    0.38863992    -0.17710000
opls_145-2    C    0.50149000    0.41514007    0.38395983    0.19520000
opls_145-3    C    0.47499001    0.41910995    0.25899047    -0.17070000
opls_145-4    C    0.47380003    0.44624009    0.13768996    -0.13320000
opls_700-5    C    0.49973008    0.46961007    0.13316057    0.07930000
opls_142-6    C    0.48832994    0.36012998    0.49798037    0.06890000
opls_145-7    C    0.50671993    0.34158011    0.81863020    -0.13290000
opls_145-8    C    0.50909001    0.31718990    0.95732997    -0.11990000
opls_700-9    C    0.49573010    0.28585993    0.92519048    0.12210000
opls_145-10    C    0.47970008    0.27904994    0.75503007    -0.11980000
opls_145-11    C    0.47742005    0.30335996    0.61587961    -0.12970000
opls_700-12    C    0.49098993    0.33479011    0.64628959    0.06750000
opls_261-13    C    0.49871997    0.26060000    0.06608031    -0.09670000
opls_145-14    C    0.02540007    0.96593997    0.76628030    -0.13230000
opls_145-15    C    0.02623994    0.93896995    0.88863992    -0.17710000
opls_145-16    C    0.00149000    0.91514007    0.88395983    0.19520000
opls_145-17    C    0.97499001    0.91910995    0.75899047    -0.17070000
opls_145-18    C    0.97380003    0.94624009    0.63768996    -0.13320000
opls_700-19    C    0.99973008    0.96961007    0.63316057    0.07930000
opls_142-20    C    0.98832994    0.86012998    0.99798037    0.06890000
opls_145-21    C    0.00671993    0.84158011    0.31863020    -0.13290000
opls_145-22    C    0.00909001    0.81718990    0.45732997    -0.11990000
opls_700-23    C    0.99573010    0.78585993    0.42519048    0.12210000
opls_145-24    C    0.97970008    0.77904994    0.25503007    -0.11980000
opls_145-25    C    0.97742005    0.80335996    0.11587961    -0.12970000
opls_700-26    C    0.99098993    0.83479011    0.14628959    0.06750000
opls_261-27    C    0.99871997    0.76060000    0.56608031    -0.09670000
opls_145-28    C    0.97459993    0.03406003    0.76628030    -0.13230000
opls_145-29    C    0.97376006    0.06103005    0.88863992    -0.17710000
opls_145-30    C    0.99851000    0.08485993    0.88395983    0.19520000
opls_145-31    C    0.02500999    0.08089005    0.75899047    -0.17070000
opls_145-32    C    0.02619997    0.05375991    0.63768996    -0.13320000
opls_700-33    C    0.00026992    0.03038993    0.63316057    0.07930000
opls_142-34    C    0.01167006    0.13987002    0.99798037    0.06890000
opls_145-35    C    0.99328007    0.15841989    0.31863020    -0.13290000
opls_145-36    C    0.99090999    0.18281010    0.45732997    -0.11990000
opls_700-37    C    0.00426990    0.21414007    0.42519048    0.12210000
opls_145-38    C    0.02029992    0.22095006    0.25503007    -0.11980000
opls_145-39    C    0.02257995    0.19664004    0.11587961    -0.12970000
opls_700-40    C    0.00901007    0.16520989    0.14628959    0.06750000
opls_261-41    C    0.00128003    0.23940000    0.56608031    -0.09670000
opls_145-42    C    0.47459993    0.53406003    0.26628030    -0.13230000
opls_145-43    C    0.47376006    0.56103005    0.38863992    -0.17710000
opls_145-44    C    0.49851000    0.58485993    0.38395983    0.19520000
opls_145-45    C    0.52500999    0.58089005    0.25899047    -0.17070000
opls_145-46    C    0.52619997    0.55375991    0.13768996    -0.13320000
opls_700-47    C    0.50026992    0.53038993    0.13316057    0.07930000
opls_142-48    C    0.51167006    0.63987002    0.49798037    0.06890000
opls_145-49    C    0.49328007    0.65841989    0.81863020    -0.13290000
opls_145-50    C    0.49090999    0.68281010    0.95732997    -0.11990000
opls_700-51    C    0.50426990    0.71414007    0.92519048    0.12210000
opls_145-52    C    0.52029992    0.72095006    0.75503007    -0.11980000
opls_145-53    C    0.52257995    0.69664004    0.61587961    -0.12970000
opls_700-54    C    0.50901007    0.66520989    0.64628959    0.06750000
opls_261-55    C    0.50128003    0.73940000    0.06608031    -0.09670000
opls_145-56    C    0.53406003    0.02540007    0.51627959    -0.13230000
opls_145-57    C    0.56103005    0.02623994    0.63864062    -0.17710000
opls_145-58    C    0.58485993    0.00149000    0.63396054    0.19520000
opls_145-59    C    0.58089005    0.97499001    0.50898976    -0.17070000
opls_145-60    C    0.55375991    0.97380003    0.38769066    -0.13320000
opls_700-61    C    0.53038993    0.99973008    0.38315987    0.07930000
opls_142-62    C    0.63987002    0.98832994    0.74797966    0.06890000
opls_145-63    C    0.65841989    0.00671993    0.06862949    -0.13290000
opls_145-64    C    0.68281010    0.00909001    0.20733068    -0.11990000
opls_700-65    C    0.71414007    0.99573010    0.17518978    0.12210000
opls_145-66    C    0.72095006    0.97970008    0.00502936    -0.11980000
opls_145-67    C    0.69664004    0.97742005    0.86588031    -0.12970000
opls_700-68    C    0.66520989    0.99098993    0.89629030    0.06750000
opls_261-69    C    0.73940000    0.99871997    0.31607960    -0.09670000
opls_145-70    C    0.03406003    0.52540007    0.01627959    -0.13230000
opls_145-71    C    0.06103005    0.52623994    0.13864062    -0.17710000
opls_145-72    C    0.08485993    0.50149000    0.13396054    0.19520000
opls_145-73    C    0.08089005    0.47499001    0.00898976    -0.17070000
opls_145-74    C    0.05375991    0.47380003    0.88769066    -0.13320000
opls_700-75    C    0.03038993    0.49973008    0.88315987    0.07930000
opls_142-76    C    0.13987002    0.48832994    0.24797966    0.06890000
opls_145-77    C    0.15841989    0.50671993    0.56862949    -0.13290000
opls_145-78    C    0.18281010    0.50909001    0.70733068    -0.11990000
opls_700-79    C    0.21414007    0.49573010    0.67518978    0.12210000
opls_145-80    C    0.22095006    0.47970008    0.50502936    -0.11980000
opls_145-81    C    0.19664004    0.47742005    0.36588031    -0.12970000
opls_700-82    C    0.16520989    0.49098993    0.39629030    0.06750000
opls_261-83    C    0.23940000    0.49871997    0.81607960    -0.09670000
opls_145-84    C    0.96593997    0.47459993    0.01627959    -0.13230000
opls_145-85    C    0.93896995    0.47376006    0.13864062    -0.17710000
opls_145-86    C    0.91514007    0.49851000    0.13396054    0.19520000
opls_145-87    C    0.91910995    0.52500999    0.00898976    -0.17070000
opls_145-88    C    0.94624009    0.52619997    0.88769066    -0.13320000
opls_700-89    C    0.96961007    0.50026992    0.88315987    0.07930000
opls_142-90    C    0.86012998    0.51167006    0.24797966    0.06890000
opls_145-91    C    0.84158011    0.49328007    0.56862949    -0.13290000
opls_145-92    C    0.81718990    0.49090999    0.70733068    -0.11990000
opls_700-93    C    0.78585993    0.50426990    0.67518978    0.12210000
opls_145-94    C    0.77904994    0.52029992    0.50502936    -0.11980000
opls_145-95    C    0.80335996    0.52257995    0.36588031    -0.12970000
opls_700-96    C    0.83479011    0.50901007    0.39629030    0.06750000
opls_261-97    C    0.76060000    0.50128003    0.81607960    -0.09670000
opls_145-98    C    0.46593997    0.97459993    0.51627959    -0.13230000
opls_145-99    C    0.43896995    0.97376006    0.63864062    -0.17710000
opls_145-100    C    0.41514007    0.99851000    0.63396054    0.19520000
opls_145-101    C    0.41910995    0.02500999    0.50898976    -0.17070000
opls_145-102    C    0.44624009    0.02619997    0.38769066    -0.13320000
opls_700-103    C    0.46961007    0.00026992    0.38315987    0.07930000
opls_142-104    C    0.36012998    0.01167006    0.74797966    0.06890000
opls_145-105    C    0.34158011    0.99328007    0.06862949    -0.13290000
opls_145-106    C    0.31718990    0.99090999    0.20733068    -0.11990000
opls_700-107    C    0.28585993    0.00426990    0.17518978    0.12210000
opls_145-108    C    0.27904994    0.02029992    0.00502936    -0.11980000
opls_145-109    C    0.30335996    0.02257995    0.86588031    -0.12970000
opls_700-110    C    0.33479011    0.00901007    0.89629030    0.06750000
opls_261-111    C    0.26060000    0.00128003    0.31607960    -0.09670000
opls_145-112    C    0.47459993    0.03406003    0.98372041    -0.13230000
opls_145-113    C    0.47376006    0.06103005    0.86135938    -0.17710000
opls_145-114    C    0.49851000    0.08485993    0.86603946    0.19520000
opls_145-115    C    0.52500999    0.08089005    0.99101024    -0.17070000
opls_145-116    C    0.52619997    0.05375991    0.11230934    -0.13320000
opls_700-117    C    0.50026992    0.03038993    0.11684013    0.07930000
opls_142-118    C    0.51167006    0.13987002    0.75202034    0.06890000
opls_145-119    C    0.49328007    0.15841989    0.43137051    -0.13290000
opls_145-120    C    0.49090999    0.18281010    0.29266932    -0.11990000
opls_700-121    C    0.50426990    0.21414007    0.32481022    0.12210000
opls_145-122    C    0.52029992    0.22095006    0.49497064    -0.11980000
opls_145-123    C    0.52257995    0.19664004    0.63411969    -0.12970000
opls_700-124    C    0.50901007    0.16520989    0.60370970    0.06750000
opls_261-125    C    0.50128003    0.23940000    0.18392040    -0.09670000
opls_145-126    C    0.97459993    0.53406003    0.48372041    -0.13230000
opls_145-127    C    0.97376006    0.56103005    0.36135938    -0.17710000
opls_145-128    C    0.99851000    0.58485993    0.36603946    0.19520000
opls_145-129    C    0.02500999    0.58089005    0.49101024    -0.17070000
opls_145-130    C    0.02619997    0.55375991    0.61230934    -0.13320000
opls_700-131    C    0.00026992    0.53038993    0.61684013    0.07930000
opls_142-132    C    0.01167006    0.63987002    0.25202034    0.06890000
opls_145-133    C    0.99328007    0.65841989    0.93137051    -0.13290000
opls_145-134    C    0.99090999    0.68281010    0.79266932    -0.11990000
opls_700-135    C    0.00426990    0.71414007    0.82481022    0.12210000
opls_145-136    C    0.02029992    0.72095006    0.99497064    -0.11980000
opls_145-137    C    0.02257995    0.69664004    0.13411969    -0.12970000
opls_700-138    C    0.00901007    0.66520989    0.10370970    0.06750000
opls_261-139    C    0.00128003    0.73940000    0.68392040    -0.09670000
opls_145-140    C    0.02540007    0.46593997    0.48372041    -0.13230000
opls_145-141    C    0.02623994    0.43896995    0.36135938    -0.17710000
opls_145-142    C    0.00149000    0.41514007    0.36603946    0.19520000
opls_145-143    C    0.97499001    0.41910995    0.49101024    -0.17070000
opls_145-144    C    0.97380003    0.44624009    0.61230934    -0.13320000
opls_700-145    C    0.99973008    0.46961007    0.61684013    0.07930000
opls_142-146    C    0.98832994    0.36012998    0.25202034    0.06890000
opls_145-147    C    0.00671993    0.34158011    0.93137051    -0.13290000
opls_145-148    C    0.00909001    0.31718990    0.79266932    -0.11990000
opls_700-149    C    0.99573010    0.28585993    0.82481022    0.12210000
opls_145-150    C    0.97970008    0.27904994    0.99497064    -0.11980000
opls_145-151    C    0.97742005    0.30335996    0.13411969    -0.12970000
opls_700-152    C    0.99098993    0.33479011    0.10370970    0.06750000
opls_261-153    C    0.99871997    0.26060000    0.68392040    -0.09670000
opls_145-154    C    0.52540007    0.96593997    0.98372041    -0.13230000
opls_145-155    C    0.52623994    0.93896995    0.86135938    -0.17710000
opls_145-156    C    0.50149000    0.91514007    0.86603946    0.19520000
opls_145-157    C    0.47499001    0.91910995    0.99101024    -0.17070000
opls_145-158    C    0.47380003    0.94624009    0.11230934    -0.13320000
opls_700-159    C    0.49973008    0.96961007    0.11684013    0.07930000
opls_142-160    C    0.48832994    0.86012998    0.75202034    0.06890000
opls_145-161    C    0.50671993    0.84158011    0.43137051    -0.13290000
opls_145-162    C    0.50909001    0.81718990    0.29266932    -0.11990000
opls_700-163    C    0.49573010    0.78585993    0.32481022    0.12210000
opls_145-164    C    0.47970008    0.77904994    0.49497064    -0.11980000
opls_145-165    C    0.47742005    0.80335996    0.63411969    -0.12970000
opls_700-166    C    0.49098993    0.83479011    0.60370970    0.06750000
opls_261-167    C    0.49871997    0.76060000    0.18392040    -0.09670000
opls_145-168    C    0.46593997    0.47459993    0.73371970    -0.13230000
opls_145-169    C    0.43896995    0.47376006    0.61136008    -0.17710000
opls_145-170    C    0.41514007    0.49851000    0.61604017    0.19530000
opls_145-171    C    0.41910995    0.52500999    0.74100953    -0.17070000
opls_145-172    C    0.44624009    0.52619997    0.86231004    -0.13320000
opls_700-173    C    0.46961007    0.50026992    0.86683943    0.07930000
opls_142-174    C    0.36012998    0.51167006    0.50201963    0.06890000
opls_145-175    C    0.34158011    0.49328007    0.18136980    -0.13280000
opls_145-176    C    0.31718990    0.49090999    0.04267003    -0.11990000
opls_700-177    C    0.28585993    0.50426990    0.07480952    0.12210000
opls_145-178    C    0.27904994    0.52029992    0.24496993    -0.11980000
opls_145-179    C    0.30335996    0.52257995    0.38412039    -0.12970000
opls_700-180    C    0.33479011    0.50901007    0.35371041    0.06750000
opls_261-181    C    0.26060000    0.50128003    0.93391969    -0.09670000
opls_145-182    C    0.96593997    0.97459993    0.23371970    -0.13230000
opls_145-183    C    0.93896995    0.97376006    0.11136008    -0.17710000
opls_145-184    C    0.91514007    0.99851000    0.11604017    0.19520000
opls_145-185    C    0.91910995    0.02500999    0.24100953    -0.17070000
opls_145-186    C    0.94624009    0.02619997    0.36231004    -0.13320000
opls_700-187    C    0.96961007    0.00026992    0.36683943    0.07930000
opls_142-188    C    0.86012998    0.01167006    0.00201963    0.06890000
opls_145-189    C    0.84158011    0.99328007    0.68136980    -0.13290000
opls_145-190    C    0.81718990    0.99090999    0.54267003    -0.11990000
opls_700-191    C    0.78585993    0.00426990    0.57480952    0.12210000
opls_145-192    C    0.77904994    0.02029992    0.74496993    -0.11980000
opls_145-193    C    0.80335996    0.02257995    0.88412039    -0.12970000
opls_700-194    C    0.83479011    0.00901007    0.85371041    0.06750000
opls_261-195    C    0.76060000    0.00128003    0.43391969    -0.09670000
opls_145-196    C    0.03406003    0.02540007    0.23371970    -0.13230000
opls_145-197    C    0.06103005    0.02623994    0.11136008    -0.17710000
opls_145-198    C    0.08485993    0.00149000    0.11604017    0.19520000
opls_145-199    C    0.08089005    0.97499001    0.24100953    -0.17070000
opls_145-200    C    0.05375991    0.97380003    0.36231004    -0.13320000
opls_700-201    C    0.03038993    0.99973008    0.36683943    0.07930000
opls_142-202    C    0.13987002    0.98832994    0.00201963    0.06890000
opls_145-203    C    0.15841989    0.00671993    0.68136980    -0.13290000
opls_145-204    C    0.18281010    0.00909001    0.54267003    -0.11990000
opls_700-205    C    0.21414007    0.99573010    0.57480952    0.12210000
opls_145-206    C    0.22095006    0.97970008    0.74496993    -0.11980000
opls_145-207    C    0.19664004    0.97742005    0.88412039    -0.12970000
opls_700-208    C    0.16520989    0.99098993    0.85371041    0.06750000
opls_261-209    C    0.23940000    0.99871997    0.43391969    -0.09670000
opls_145-210    C    0.53406003    0.52540007    0.73371970    -0.13230000
opls_145-211    C    0.56103005    0.52623994    0.61136008    -0.17710000
opls_145-212    C    0.58485993    0.50149000    0.61604017    0.19520000
opls_145-213    C    0.58089005    0.47499001    0.74100953    -0.17070000
opls_145-214    C    0.55375991    0.47380003    0.86231004    -0.13320000
opls_700-215    C    0.53038993    0.49973008    0.86683943    0.07930000
opls_142-216    C    0.63987002    0.48832994    0.50201963    0.06890000
opls_145-217    C    0.65841989    0.50671993    0.18136980    -0.13290000
opls_145-218    C    0.68281010    0.50909001    0.04267003    -0.11980000
opls_700-219    C    0.71414007    0.49573010    0.07480952    0.12210000
opls_145-220    C    0.72095006    0.47970008    0.24496993    -0.11970000
opls_145-221    C    0.69664004    0.47742005    0.38412039    -0.12970000
opls_700-222    C    0.66520989    0.49098993    0.35371041    0.06750000
opls_261-223    C    0.73940000    0.49871997    0.93391969    -0.09670000
opls_701-224    C    0.50000000    0.50000000    0.00000000    0.00100000
opls_701-225    C    0.00000000    0.00000000    0.50000000    0.00100000
opls_701-226    C    0.50000000    0.00000000    0.24999930    0.00100000
opls_701-227    C    0.00000000    0.50000000    0.74999930    0.00100000
opls_750-228    N    0.50299999    0.38847008    0.51638945    -0.35660000
opls_750-229    N    0.00299999    0.88847008    0.01638945    -0.35660000
opls_750-230    N    0.99700001    0.11152992    0.01638945    -0.35660000
opls_750-231    N    0.49700001    0.61152992    0.51638945    -0.35660000
opls_750-232    N    0.61152992    0.00299999    0.76639015    -0.35660000
opls_750-233    N    0.11152992    0.50299999    0.26639015    -0.35660000
opls_750-234    N    0.88847008    0.49700001    0.26639015    -0.35650000
opls_750-235    N    0.38847008    0.99700001    0.76639015    -0.35660000
opls_750-236    N    0.49700001    0.11152992    0.73360985    -0.35660000
opls_750-237    N    0.99700001    0.61152992    0.23360985    -0.35660000
opls_750-238    N    0.00299999    0.38847008    0.23360985    -0.35660000
opls_750-239    N    0.50299999    0.88847008    0.73360985    -0.35660000
opls_750-240    N    0.38847008    0.49700001    0.48361055    -0.35650000
opls_750-241    N    0.88847008    0.99700001    0.98361055    -0.35660000
opls_750-242    N    0.11152992    0.00299999    0.98361055    -0.35660000
opls_750-243    N    0.61152992    0.50299999    0.48361055    -0.35660000
opls_146-244    H    0.54513005    0.48396011    0.27298987    0.11390000
opls_146-245    H    0.54634001    0.43630996    0.48743011    0.11640000
opls_146-246    H    0.45448012    0.40207006    0.25985944    0.11510000
opls_146-247    H    0.45198001    0.44886998    0.05183020    0.11240000
opls_144-248    H    0.47461004    0.35426990    0.37139980    0.12220000
opls_146-249    H    0.51714006    0.36574998    0.84536006    0.11320000
opls_146-250    H    0.52138998    0.32267988    0.08923989    0.11490000
opls_146-251    H    0.46921012    0.25484996    0.72968044    0.11490000
opls_146-252    H    0.46520002    0.29758995    0.48417954    0.11260000
opls_146-253    H    0.04513005    0.98396011    0.77298987    0.11390000
opls_146-254    H    0.04634001    0.93630996    0.98743011    0.11640000
opls_146-255    H    0.95448012    0.90207006    0.75985944    0.11510000
opls_146-256    H    0.95198001    0.94886998    0.55183020    0.11240000
opls_144-257    H    0.97461004    0.85426990    0.87139980    0.12220000
opls_146-258    H    0.01714006    0.86574998    0.34536006    0.11320000
opls_146-259    H    0.02138998    0.82267988    0.58923989    0.11490000
opls_146-260    H    0.96921012    0.75484996    0.22968044    0.11490000
opls_146-261    H    0.96520002    0.79758995    0.98417954    0.11260000
opls_146-262    H    0.95486995    0.01603989    0.77298987    0.11390000
opls_146-263    H    0.95365999    0.06369004    0.98743011    0.11650000
opls_146-264    H    0.04551988    0.09792994    0.75985944    0.11510000
opls_146-265    H    0.04801999    0.05113002    0.55183020    0.11240000
opls_144-266    H    0.02538996    0.14573010    0.87139980    0.12220000
opls_146-267    H    0.98285994    0.13425002    0.34536006    0.11320000
opls_146-268    H    0.97861002    0.17732012    0.58923989    0.11490000
opls_146-269    H    0.03078988    0.24515004    0.22968044    0.11490000
opls_146-270    H    0.03479998    0.20241005    0.98417954    0.11260000
opls_146-271    H    0.45486995    0.51603989    0.27298987    0.11390000
opls_146-272    H    0.45365999    0.56369004    0.48743011    0.11640000
opls_146-273    H    0.54551988    0.59792994    0.25985944    0.11510000
opls_146-274    H    0.54801999    0.55113002    0.05183020    0.11240000
opls_144-275    H    0.52538996    0.64573010    0.37139980    0.12220000
opls_146-276    H    0.48285994    0.63425002    0.84536006    0.11320000
opls_146-277    H    0.47861002    0.67732012    0.08923989    0.11490000
opls_146-278    H    0.53078988    0.74515004    0.72968044    0.11490000
opls_146-279    H    0.53479998    0.70241005    0.48417954    0.11260000
opls_146-280    H    0.51603989    0.04513005    0.52299058    0.11390000
opls_146-281    H    0.56369004    0.04634001    0.73742940    0.11640000
opls_146-282    H    0.59792994    0.95448012    0.50986015    0.11510000
opls_146-283    H    0.55113002    0.95198001    0.30182950    0.11240000
opls_144-284    H    0.64573010    0.97461004    0.62140050    0.12220000
opls_146-285    H    0.63425002    0.01714006    0.09535935    0.11320000
opls_146-286    H    0.67732012    0.02138998    0.33924060    0.11490000
opls_146-287    H    0.74515004    0.96921012    0.97967973    0.11490000
opls_146-288    H    0.70241005    0.96520002    0.73418025    0.11260000
opls_146-289    H    0.01603989    0.54513005    0.02299058    0.11390000
opls_146-290    H    0.06369004    0.54634001    0.23742940    0.11640000
opls_146-291    H    0.09792994    0.45448012    0.00986015    0.11510000
opls_146-292    H    0.05113002    0.45198001    0.80182950    0.11240000
opls_144-293    H    0.14573010    0.47461004    0.12140050    0.12220000
opls_146-294    H    0.13425002    0.51714006    0.59535935    0.11320000
opls_146-295    H    0.17732012    0.52138998    0.83924060    0.11490000
opls_146-296    H    0.24515004    0.46921012    0.47967973    0.11490000
opls_146-297    H    0.20241005    0.46520002    0.23418025    0.11260000
opls_146-298    H    0.98396011    0.45486995    0.02299058    0.11390000
opls_146-299    H    0.93630996    0.45365999    0.23742940    0.11640000
opls_146-300    H    0.90207006    0.54551988    0.00986015    0.11510000
opls_146-301    H    0.94886998    0.54801999    0.80182950    0.11240000
opls_144-302    H    0.85426990    0.52538996    0.12140050    0.12220000
opls_146-303    H    0.86574998    0.48285994    0.59535935    0.11320000
opls_146-304    H    0.82267988    0.47861002    0.83924060    0.11490000
opls_146-305    H    0.75484996    0.53078988    0.47967973    0.11490000
opls_146-306    H    0.79758995    0.53479998    0.23418025    0.11260000
opls_146-307    H    0.48396011    0.95486995    0.52299058    0.11390000
opls_146-308    H    0.43630996    0.95365999    0.73742940    0.11640000
opls_146-309    H    0.40207006    0.04551988    0.50986015    0.11510000
opls_146-310    H    0.44886998    0.04801999    0.30182950    0.11240000
opls_144-311    H    0.35426990    0.02538996    0.62140050    0.12220000
opls_146-312    H    0.36574998    0.98285994    0.09535935    0.11320000
opls_146-313    H    0.32267988    0.97861002    0.33924060    0.11490000
opls_146-314    H    0.25484996    0.03078988    0.97967973    0.11490000
opls_146-315    H    0.29758995    0.03479998    0.73418025    0.11260000
opls_146-316    H    0.45486995    0.01603989    0.97700942    0.11390000
opls_146-317    H    0.45365999    0.06369004    0.76257060    0.11640000
opls_146-318    H    0.54551988    0.09792994    0.99013985    0.11510000
opls_146-319    H    0.54801999    0.05113002    0.19817050    0.11240000
opls_144-320    H    0.52538996    0.14573010    0.87859950    0.12220000
opls_146-321    H    0.48285994    0.13425002    0.40464065    0.11320000
opls_146-322    H    0.47861002    0.17732012    0.16075940    0.11490000
opls_146-323    H    0.53078988    0.24515004    0.52032027    0.11490000
opls_146-324    H    0.53479998    0.20241005    0.76581975    0.11260000
opls_146-325    H    0.95486995    0.51603989    0.47700942    0.11390000
opls_146-326    H    0.95365999    0.56369004    0.26257060    0.11640000
opls_146-327    H    0.04551988    0.59792994    0.49013985    0.11510000
opls_146-328    H    0.04801999    0.55113002    0.69817050    0.11240000
opls_144-329    H    0.02538996    0.64573010    0.37859950    0.12220000
opls_146-330    H    0.98285994    0.63425002    0.90464065    0.11320000
opls_146-331    H    0.97861002    0.67732012    0.66075940    0.11490000
opls_146-332    H    0.03078988    0.74515004    0.02032027    0.11490000
opls_146-333    H    0.03479998    0.70241005    0.26581975    0.11260000
opls_146-334    H    0.04513005    0.48396011    0.47700942    0.11390000
opls_146-335    H    0.04634001    0.43630996    0.26257060    0.11640000
opls_146-336    H    0.95448012    0.40207006    0.49013985    0.11510000
opls_146-337    H    0.95198001    0.44886998    0.69817050    0.11240000
opls_144-338    H    0.97461004    0.35426990    0.37859950    0.12220000
opls_146-339    H    0.01714006    0.36574998    0.90464065    0.11320000
opls_146-340    H    0.02138998    0.32267988    0.66075940    0.11500000
opls_146-341    H    0.96921012    0.25484996    0.02032027    0.11490000
opls_146-342    H    0.96520002    0.29758995    0.26581975    0.11260000
opls_146-343    H    0.54513005    0.98396011    0.97700942    0.11390000
opls_146-344    H    0.54634001    0.93630996    0.76257060    0.11640000
opls_146-345    H    0.45448012    0.90207006    0.99013985    0.11510000
opls_146-346    H    0.45198001    0.94886998    0.19817050    0.11240000
opls_144-347    H    0.47461004    0.85426990    0.87859950    0.12220000
opls_146-348    H    0.51714006    0.86574998    0.40464065    0.11320000
opls_146-349    H    0.52138998    0.82267988    0.16075940    0.11490000
opls_146-350    H    0.46921012    0.75484996    0.52032027    0.11490000
opls_146-351    H    0.46520002    0.79758995    0.76581975    0.11260000
opls_146-352    H    0.48396011    0.45486995    0.72701013    0.11390000
opls_146-353    H    0.43630996    0.45365999    0.51256989    0.11640000
opls_146-354    H    0.40207006    0.54551988    0.74014056    0.11510000
opls_146-355    H    0.44886998    0.54801999    0.94816980    0.11240000
opls_144-356    H    0.35426990    0.52538996    0.62860020    0.12220000
opls_146-357    H    0.36574998    0.48285994    0.15463994    0.11320000
opls_146-358    H    0.32267988    0.47861002    0.91076011    0.11490000
opls_146-359    H    0.25484996    0.53078988    0.27031956    0.11490000
opls_146-360    H    0.29758995    0.53479998    0.51582046    0.11260000
opls_146-361    H    0.98396011    0.95486995    0.22701013    0.11390000
opls_146-362    H    0.93630996    0.95365999    0.01256989    0.11640000
opls_146-363    H    0.90207006    0.04551988    0.24014056    0.11510000
opls_146-364    H    0.94886998    0.04801999    0.44816980    0.11240000
opls_144-365    H    0.85426990    0.02538996    0.12860020    0.12220000
opls_146-366    H    0.86574998    0.98285994    0.65463994    0.11320000
opls_146-367    H    0.82267988    0.97861002    0.41076011    0.11490000
opls_146-368    H    0.75484996    0.03078988    0.77031956    0.11490000
opls_146-369    H    0.79758995    0.03479998    0.01582046    0.11260000
opls_146-370    H    0.01603989    0.04513005    0.22701013    0.11390000
opls_146-371    H    0.06369004    0.04634001    0.01256989    0.11640000
opls_146-372    H    0.09792994    0.95448012    0.24014056    0.11510000
opls_146-373    H    0.05113002    0.95198001    0.44816980    0.11240000
opls_144-374    H    0.14573010    0.97461004    0.12860020    0.12220000
opls_146-375    H    0.13425002    0.01714006    0.65463994    0.11320000
opls_146-376    H    0.17732012    0.02138998    0.41076011    0.11490000
opls_146-377    H    0.24515004    0.96921012    0.77031956    0.11490000
opls_146-378    H    0.20241005    0.96520002    0.01582046    0.11260000
opls_146-379    H    0.51603989    0.54513005    0.72701013    0.11390000
opls_146-380    H    0.56369004    0.54634001    0.51256989    0.11640000
opls_146-381    H    0.59792994    0.45448012    0.74014056    0.11510000
opls_146-382    H    0.55113002    0.45198001    0.94816980    0.11240000
opls_144-383    H    0.64573010    0.47461004    0.62860020    0.12220000
opls_146-384    H    0.63425002    0.51714006    0.15463994    0.11320000
opls_146-385    H    0.67732012    0.52138998    0.91076011    0.11490000
opls_146-386    H    0.74515004    0.46921012    0.27031956    0.11490000
opls_146-387    H    0.70241005    0.46520002    0.51582046    0.11260000
