#======================================================================
# Crystal Data Generated By AuToFF
#----------------------------------------------------------------------

data_AuToFF_phase_1

_cell_length_a                         21.5453
_cell_length_b                         21.5453
_cell_length_c                         3.4962
_cell_angle_alpha                      90.00
_cell_angle_beta                       90.00
_cell_angle_gamma                      120.00
_symmetry_space_group_name_H-M_alt     'P 1'
_symmetry_space_group_IT_number        1

loop_
_space_group_symop_operation_xyz
   'x, y, z'

loop_
   _atom_site_label
   _atom_site_type_symbol
   _atom_site_fract_x
   _atom_site_fract_y
   _atom_site_fract_z
   _atom_site_charge
opls_716-0    C    0.26185976    0.64403996    0.50000000    -0.02280000
opls_567-1    C    0.28389971    0.59499978    0.50000000    -0.03560000
opls_567-2    C    0.38145021    0.84078005    0.50000000    -0.03340000
opls_716-3    C    0.42294988    0.80980000    0.50000000    -0.18160000
opls_142-4    C    0.40975012    0.91699993    0.50000000    0.06920000
opls_145-5    C    0.52247003    0.48706989    0.50000000    0.19400000
opls_145-6    C    0.59638010    0.52240983    0.50000000    -0.22040000
opls_523-7    C    0.63187004    0.48441002    0.50000000    -0.21220000
opls_700-8    C    0.59442973    0.41051987    0.50000000    0.03260000
opls_523-9    C    0.52058990    0.37555992    0.50000000    -0.21270000
opls_145-10    C    0.48528993    0.41368996    0.50000000    -0.21970000
opls_531-11    C    0.63212989    0.37022999    0.50000000    0.33510000
opls_716-12    C    0.35596024    0.61782014    0.50000000    -0.02280000
opls_567-13    C    0.40500000    0.68889981    0.50000000    -0.03560000
opls_567-14    C    0.15921975    0.54066986    0.50000000    -0.03340000
opls_716-15    C    0.19020017    0.61314995    0.50000000    -0.18160000
opls_142-16    C    0.08300005    0.49274979    0.50000000    0.06920000
opls_145-17    C    0.51293003    0.03539996    0.50000000    0.19400000
opls_145-18    C    0.47759014    0.07397000    0.50000000    -0.22040000
opls_523-19    C    0.51559007    0.14745980    0.50000000    -0.21220000
opls_700-20    C    0.58948032    0.18391020    0.50000000    0.03260000
opls_523-21    C    0.62443994    0.14502985    0.50000000    -0.21270000
opls_145-22    C    0.58630989    0.07160007    0.50000000    -0.21970000
opls_531-23    C    0.62977004    0.26189976    0.50000000    0.33510000
opls_716-24    C    0.38218000    0.73813990    0.50000000    -0.02280000
opls_567-25    C    0.31110002    0.71609987    0.50000000    -0.03560000
opls_567-26    C    0.45933004    0.61855009    0.50000000    -0.03340000
opls_716-27    C    0.38684995    0.57705005    0.50000000    -0.18160000
opls_142-28    C    0.50725002    0.59024974    0.50000000    0.06920000
opls_145-29    C    0.96459994    0.47753015    0.50000000    0.19400000
opls_145-30    C    0.92603022    0.40362017    0.50000000    -0.22040000
opls_523-31    C    0.85253988    0.36813018    0.50000000    -0.21220000
opls_700-32    C    0.81608995    0.40556992    0.50000000    0.03260000
opls_523-33    C    0.85496989    0.47940969    0.50000000    -0.21270000
opls_145-34    C    0.92840018    0.51470996    0.50000000    -0.21970000
opls_531-35    C    0.73809980    0.36786971    0.50000000    0.33510000
opls_633-36    S    0.29247982    0.78276983    0.50000000    0.03410000
opls_633-37    S    0.21723018    0.50971017    0.50000000    0.03410000
opls_633-38    S    0.49029001    0.70752000    0.50000000    0.03410000
opls_750-39    N    0.48272978    0.52276998    0.50000000    -0.29510000
opls_520-40    N    0.70328995    0.40423972    0.50000000    -0.43210000
opls_750-41    N    0.47722991    0.95995987    0.50000000    -0.29500000
opls_520-42    N    0.59576019    0.29905010    0.50000000    -0.43200000
opls_750-43    N    0.04004030    0.51727015    0.50000000    -0.29510000
opls_520-44    N    0.70095032    0.29671018    0.50000000    -0.43210000
opls_570-45    H    0.47978982    0.83829007    0.50000000    0.21900000
opls_144-46    H    0.37248007    0.93531999    0.50000000    0.10660000
opls_146-47    H    0.62728027    0.57893013    0.50000000    0.21800000
opls_526-48    H    0.68874991    0.51279987    0.50000000    0.21900000
opls_526-49    H    0.49021991    0.31872984    0.50000000    0.21900000
opls_146-50    H    0.42847986    0.38627981    0.50000000    0.21900000
opls_570-51    H    0.16171028    0.64150014    0.50000000    0.21900000
opls_144-52    H    0.06468002    0.43715988    0.50000000    0.10660000
opls_146-53    H    0.42106986    0.04834989    0.50000000    0.21790000
opls_526-54    H    0.48719983    0.17594987    0.50000000    0.21900000
opls_526-55    H    0.68126967    0.17148978    0.50000000    0.21900000
opls_146-56    H    0.61372019    0.04219997    0.50000000    0.21900000
opls_570-57    H    0.35849990    0.52020979    0.50000000    0.21900000
opls_144-58    H    0.56283991    0.62752013    0.50000000    0.10660000
opls_146-59    H    0.95164986    0.37271997    0.50000000    0.21790000
opls_526-60    H    0.82404999    0.31124972    0.50000000    0.21900000
opls_526-61    H    0.82850969    0.50977985    0.50000000    0.21900000
opls_146-62    H    0.95779968    0.57151968    0.50000000    0.21900000
