#======================================================================
# Crystal Data Generated By AuToFF
#----------------------------------------------------------------------

data_AuToFF_phase_1

_cell_length_a                         22.5560
_cell_length_b                         22.5560
_cell_length_c                         3.5000
_cell_angle_alpha                      90.00
_cell_angle_beta                       90.00
_cell_angle_gamma                      120.00
_symmetry_space_group_name_H-M_alt     'P 1'
_symmetry_space_group_IT_number        1

loop_
_space_group_symop_operation_xyz
   'x, y, z'

loop_
   _atom_site_label
   _atom_site_type_symbol
   _atom_site_fract_x
   _atom_site_fract_y
   _atom_site_fract_z
   _atom_site_charge
opls_281-0    O    0.28354980    0.52708985    0.50000000    -0.41390000
opls_281-1    O    0.47290984    0.75645987    0.50000000    -0.41390000
opls_281-2    O    0.24354010    0.71644977    0.50000000    -0.41390000
opls_281-3    O    0.71645020    0.47291015    0.50000000    -0.41390000
opls_281-4    O    0.52709016    0.24354013    0.50000000    -0.41390000
opls_281-5    O    0.75645990    0.28355023    0.50000000    -0.41390000
opls_238-6    N    0.41129008    0.55211996    0.50000000    -0.19850000
opls_238-7    N    0.44787999    0.85917016    0.50000000    -0.19850000
opls_238-8    N    0.14082994    0.58870988    0.50000000    -0.19850000
opls_238-9    N    0.58870992    0.44788004    0.50000000    -0.19850000
opls_238-10    N    0.55212001    0.14082984    0.50000000    -0.19850000
opls_238-11    N    0.85917006    0.41129012    0.50000000    -0.19850000
opls_280-12    C    0.30695005    0.59145995    0.50000000    0.18310000
opls_700-13    C    0.38112983    0.64062994    0.50000000    -0.09960000
opls_142-14    C    0.42796993    0.61784001    0.50000000    -0.00210000
opls_916-15    C    0.45481022    0.52704019    0.50000000    0.24000000
opls_145-16    C    0.42935976    0.45589987    0.50000000    -0.16120000
opls_145-17    C    0.52674022    0.57065015    0.50000000    -0.16540000
opls_280-18    C    0.40853987    0.71548991    0.50000000    0.18310000
opls_700-19    C    0.35937000    0.74050006    0.50000000    -0.09960000
opls_142-20    C    0.38215989    0.81013020    0.50000000    -0.00210000
opls_916-21    C    0.47296009    0.92776979    0.50000000    0.24000000
opls_145-22    C    0.54409995    0.97345970    0.50000000    -0.16120000
opls_145-23    C    0.42935022    0.95609005    0.50000000    -0.16540000
opls_280-24    C    0.28451009    0.69305014    0.50000000    0.18310000
opls_700-25    C    0.25950017    0.61887001    0.50000000    -0.09960000
opls_142-26    C    0.18986975    0.57202979    0.50000000    -0.00210000
opls_916-27    C    0.07223014    0.54519002    0.50000000    0.24000000
opls_145-28    C    0.02654003    0.57063991    0.50000000    -0.16120000
opls_145-29    C    0.04391000    0.47325980    0.50000000    -0.16540000
opls_280-30    C    0.69304995    0.40854005    0.50000000    0.18310000
opls_700-31    C    0.61887017    0.35937006    0.50000000    -0.09960000
opls_142-32    C    0.57203007    0.38215999    0.50000000    -0.00210000
opls_916-33    C    0.54518978    0.47295981    0.50000000    0.24000000
opls_145-34    C    0.57064024    0.54410013    0.50000000    -0.16120000
opls_145-35    C    0.47325978    0.42934985    0.50000000    -0.16540000
opls_280-36    C    0.59146013    0.28451009    0.50000000    0.18310000
opls_700-37    C    0.64063000    0.25949994    0.50000000    -0.09960000
opls_142-38    C    0.61784011    0.18986980    0.50000000    -0.00210000
opls_916-39    C    0.52703991    0.07223021    0.50000000    0.24000000
opls_145-40    C    0.45589979    0.02653978    0.50000000    -0.16120000
opls_145-41    C    0.57064978    0.04390995    0.50000000    -0.16540000
opls_280-42    C    0.71548991    0.30694986    0.50000000    0.18310000
opls_700-43    C    0.74049983    0.38112999    0.50000000    -0.09960000
opls_142-44    C    0.81013025    0.42797021    0.50000000    -0.00210000
opls_916-45    C    0.92776986    0.45480998    0.50000000    0.24000000
opls_145-46    C    0.97345997    0.42936009    0.50000000    -0.16120000
opls_145-47    C    0.95609000    0.52674020    0.50000000    -0.16540000
opls_146-48    H    0.37352989    0.42043005    0.50000000    0.13520000
opls_144-49    H    0.48370001    0.65596980    0.50000000    0.05340000
opls_146-50    H    0.54892992    0.62684991    0.50000000    0.13840000
opls_910-51    H    0.35756999    0.51744004    0.50000000    0.29060000
opls_146-52    H    0.57956998    0.95309989    0.50000000    0.13520000
opls_144-53    H    0.34402978    0.82772971    0.50000000    0.05340000
opls_146-54    H    0.37314973    0.92207973    0.50000000    0.13840000
opls_910-55    H    0.48256017    0.84013009    0.50000000    0.29060000
opls_146-56    H    0.04690013    0.62647006    0.50000000    0.13520000
opls_144-57    H    0.17226996    0.51629998    0.50000000    0.05340000
opls_146-58    H    0.07792010    0.45106985    0.50000000    0.13840000
opls_910-59    H    0.15986984    0.64242987    0.50000000    0.29060000
opls_146-60    H    0.62647011    0.57956995    0.50000000    0.13520000
opls_144-61    H    0.51629999    0.34403020    0.50000000    0.05340000
opls_146-62    H    0.45107008    0.37315009    0.50000000    0.13840000
opls_910-63    H    0.64243001    0.48255996    0.50000000    0.29060000
opls_146-64    H    0.42043002    0.04690011    0.50000000    0.13520000
opls_144-65    H    0.65596997    0.17226978    0.50000000    0.05340000
opls_146-66    H    0.62685002    0.07791976    0.50000000    0.13840000
opls_910-67    H    0.51743983    0.15986991    0.50000000    0.29060000
opls_146-68    H    0.95309987    0.37352994    0.50000000    0.13520000
opls_144-69    H    0.82773004    0.48370002    0.50000000    0.05340000
opls_146-70    H    0.92207990    0.54893015    0.50000000    0.13840000
opls_910-71    H    0.84013016    0.35757013    0.50000000    0.29060000
