#======================================================================
# Crystal Data Generated By AuToFF
#----------------------------------------------------------------------

data_AuToFF_phase_1

_cell_length_a                         37.2800
_cell_length_b                         37.2800
_cell_length_c                         3.7400
_cell_angle_alpha                      90.00
_cell_angle_beta                       90.00
_cell_angle_gamma                      120.00
_symmetry_space_group_name_H-M_alt     'P 1'
_symmetry_space_group_IT_number        1

loop_
_space_group_symop_operation_xyz
   'x, y, z'

loop_
   _atom_site_label
   _atom_site_type_symbol
   _atom_site_fract_x
   _atom_site_fract_y
   _atom_site_fract_z
   _atom_site_charge
opls_145-0    C    0.29148990    0.63966006    0.98525134    0.09460000
opls_145-1    C    0.31858993    0.62509993    0.98531016    -0.12720000
opls_700-2    C    0.36454992    0.75462987    0.98356952    0.06280000
opls_145-3    C    0.37914992    0.59706004    0.14094920    -0.13060000
opls_145-4    C    0.40627991    0.58189995    0.13756952    -0.13130000
opls_700-5    C    0.44549004    0.60449992    0.97572995    0.06190000
opls_145-6    C    0.45656984    0.64311982    0.82179947    -0.13120000
opls_145-7    C    0.42939989    0.65823004    0.82471123    -0.13070000
opls_141-8    C    0.47539988    0.58827991    0.96936898    0.05170000
opls_423-9    C    0.51508991    0.61603980    0.95018984    0.23430000
opls_142-10    C    0.46060990    0.54622999    0.97840909    -0.09480000
opls_145-11    C    0.48154001    0.52429997    0.98129947    -0.00340000
opls_166-12    C    0.45794009    0.48190004    0.98724866    0.22230000
opls_145-13    C    0.47629000    0.45798987    0.98468984    -0.21760000
opls_181-14    C    0.38938000    0.42122995    0.10032086    -0.19040000
opls_145-15    C    0.36033986    0.65182994    0.98525134    0.09460000
opls_145-16    C    0.37490000    0.69348991    0.98531016    -0.12720000
opls_700-17    C    0.24536988    0.60992002    0.98356952    0.06280000
opls_145-18    C    0.40294009    0.78208994    0.14094920    -0.13070000
opls_145-19    C    0.41809983    0.82437991    0.13756952    -0.13120000
opls_700-20    C    0.39550004    0.84098988    0.97572995    0.06190000
opls_145-21    C    0.35688000    0.81344991    0.82179947    -0.13120000
opls_145-22    C    0.34177001    0.77116984    0.82471123    -0.13070000
opls_141-23    C    0.41171986    0.88711998    0.96936898    0.05170000
opls_423-24    C    0.38396000    0.89904982    0.95018984    0.23430000
opls_142-25    C    0.45376991    0.91437995    0.97840909    -0.09480000
opls_145-26    C    0.47569986    0.95723984    0.98129947    -0.00340000
opls_166-27    C    0.51809992    0.97603997    0.98724866    0.22220000
opls_145-28    C    0.54200993    0.01829990    0.98468984    -0.21760000
opls_181-29    C    0.57877003    0.96815003    0.10032086    -0.19050000
opls_145-30    C    0.34816997    0.70851000    0.98525134    0.09460000
opls_145-31    C    0.30650991    0.68140985    0.98531016    -0.12720000
opls_700-32    C    0.39007978    0.63544980    0.98356952    0.06280000
opls_145-33    C    0.21790999    0.62085002    0.14094920    -0.13070000
opls_145-34    C    0.17561984    0.59371983    0.13756952    -0.13130000
opls_700-35    C    0.15901004    0.55450988    0.97572995    0.06190000
opls_145-36    C    0.18655001    0.54342996    0.82179947    -0.13120000
opls_145-37    C    0.22882994    0.57059980    0.82471123    -0.13070000
opls_141-38    C    0.11287999    0.52460011    0.96936898    0.05170000
opls_423-39    C    0.10094994    0.48491007    0.95018984    0.23430000
opls_142-40    C    0.08561992    0.53939006    0.97840909    -0.09480000
opls_145-41    C    0.04275998    0.51845987    0.98129947    -0.00340000
opls_166-42    C    0.02395999    0.54205999    0.98724866    0.22220000
opls_145-43    C    0.98169992    0.52370992    0.98468984    -0.21760000
opls_181-44    C    0.03184998    0.61062002    0.10032086    -0.19050000
opls_145-45    C    0.70851010    0.36033994    0.98525134    0.09300000
opls_145-46    C    0.68141007    0.37490007    0.98531016    -0.12720000
opls_700-47    C    0.63545008    0.24537013    0.98356952    0.06280000
opls_145-48    C    0.62085008    0.40293996    0.14094920    -0.13070000
opls_145-49    C    0.59372009    0.41810005    0.13756952    -0.13130000
opls_700-50    C    0.55450996    0.39550008    0.97572995    0.06190000
opls_145-51    C    0.54343001    0.35687987    0.82179947    -0.13120000
opls_145-52    C    0.57060011    0.34176996    0.82471123    -0.13070000
opls_141-53    C    0.52460012    0.41172009    0.96936898    0.05170000
opls_423-54    C    0.48490993    0.38395989    0.95018984    0.23430000
opls_142-55    C    0.53939010    0.45377001    0.97840909    -0.09480000
opls_145-56    C    0.51845999    0.47570003    0.98129947    -0.00340000
opls_166-57    C    0.54205991    0.51809996    0.98724866    0.22220000
opls_145-58    C    0.52370984    0.54200982    0.98468984    -0.21760000
opls_181-59    C    0.61062000    0.57877005    0.10032086    -0.19050000
opls_145-60    C    0.63966014    0.34817006    0.98525134    0.09460000
opls_145-61    C    0.62510000    0.30651009    0.98531016    -0.12720000
opls_700-62    C    0.75463012    0.39007998    0.98356952    0.06280000
opls_145-63    C    0.59705991    0.21791006    0.14094920    -0.13060000
opls_145-64    C    0.58190017    0.17562009    0.13756952    -0.13120000
opls_700-65    C    0.60449996    0.15901012    0.97572995    0.06190000
opls_145-66    C    0.64312000    0.18655009    0.82179947    -0.13120000
opls_145-67    C    0.65822984    0.22882985    0.82471123    -0.13070000
opls_141-68    C    0.58828014    0.11288002    0.96936898    0.05170000
opls_423-69    C    0.61603985    0.10094987    0.95018984    0.23440000
opls_142-70    C    0.54623009    0.08562005    0.97840909    -0.09480000
opls_145-71    C    0.52429999    0.04275985    0.98129947    -0.00340000
opls_166-72    C    0.48190008    0.02396003    0.98724866    0.22230000
opls_145-73    C    0.45798992    0.98169979    0.98468984    -0.21760000
opls_181-74    C    0.42122997    0.03184997    0.10032086    -0.19050000
opls_145-75    C    0.65183003    0.29149000    0.98525134    0.09460000
opls_145-76    C    0.69348993    0.31858984    0.98531016    -0.12720000
opls_700-77    C    0.60992006    0.36454989    0.98356952    0.06280000
opls_145-78    C    0.78209001    0.37914998    0.14094920    -0.13070000
opls_145-79    C    0.82438001    0.40627986    0.13756952    -0.13120000
opls_700-80    C    0.84098981    0.44548981    0.97572995    0.06190000
opls_145-81    C    0.81344999    0.45657004    0.82179947    -0.13120000
opls_145-82    C    0.77116990    0.42939989    0.82471123    -0.13070000
opls_141-83    C    0.88712001    0.47539989    0.96936898    0.05170000
opls_423-84    C    0.89905006    0.51508993    0.95018984    0.23430000
opls_142-85    C    0.91438008    0.46060994    0.97840909    -0.09480000
opls_145-86    C    0.95723986    0.48153982    0.98129947    -0.00340000
opls_166-87    C    0.97604001    0.45794001    0.98724866    0.22230000
opls_145-88    C    0.01830008    0.47629008    0.98468984    -0.21760000
opls_181-89    C    0.96815002    0.38937998    0.10032086    -0.19030000
opls_753-90    N    0.44360014    0.35433011    0.92959091    -0.37310000
opls_753-91    N    0.64566987    0.08926999    0.92959091    -0.37320000
opls_753-92    N    0.91072999    0.55639990    0.92959091    -0.37310000
opls_753-93    N    0.55639986    0.64566989    0.92959091    -0.37320000
opls_753-94    N    0.35433013    0.91073001    0.92959091    -0.37320000
opls_753-95    N    0.08927001    0.44360010    0.92959091    -0.37310000
opls_179-96    O    0.41506002    0.46329010    0.99704011    -0.17170000
opls_179-97    O    0.53671005    0.95176989    0.99704011    -0.17280000
opls_179-98    O    0.04822993    0.58494002    0.99704011    -0.17280000
opls_179-99    O    0.58493998    0.53670990    0.99704011    -0.17170000
opls_179-100    O    0.46328995    0.04823011    0.99704011    -0.17280000
opls_179-101    O    0.95177007    0.41505998    0.99704011    -0.17280000
opls_146-102    H    0.30679006    0.59180008    0.98485027    0.10600000
opls_146-103    H    0.34933003    0.57861983    0.27770053    0.06940000
opls_146-104    H    0.39642987    0.55225995    0.27286096    0.10640000
opls_146-105    H    0.48660000    0.66177994    0.68851872    0.06980000
opls_146-106    H    0.43915000    0.68792982    0.69116043    0.08690000
opls_144-107    H    0.42678013    0.52741004    0.97936096    0.11430000
opls_146-108    H    0.45617011    0.42479998    0.98645989    0.12160000
opls_185-109    H    0.40061997    0.41526998    0.35217914    0.10160000
opls_185-110    H    0.38909989    0.40013003    0.89391979    0.09860000
opls_185-111    H    0.35756003    0.41502994    0.13994118    0.10090000
opls_146-112    H    0.40819994    0.71499001    0.98485027    0.10590000
opls_146-113    H    0.42137989    0.77070988    0.27770053    0.06940000
opls_146-114    H    0.44774002    0.84416996    0.27286096    0.10640000
opls_146-115    H    0.33822011    0.82482005    0.68851872    0.06990000
opls_146-116    H    0.31207002    0.75121998    0.69116043    0.08690000
opls_144-117    H    0.47258993    0.89936978    0.97936096    0.11430000
opls_146-118    H    0.57519996    0.03136988    0.98645989    0.12170000
opls_185-119    H    0.58473001    0.98535005    0.35217914    0.10160000
opls_185-120    H    0.59986990    0.98896995    0.89391979    0.09860000
opls_185-121    H    0.58496984    0.94252980    0.13994118    0.10090000
opls_146-122    H    0.28501000    0.69320991    0.98485027    0.10590000
opls_146-123    H    0.22928992    0.65066998    0.27770053    0.06940000
opls_146-124    H    0.15583011    0.60357009    0.27286096    0.10640000
opls_146-125    H    0.17517989    0.51340001    0.68851872    0.06980000
opls_146-126    H    0.24877983    0.56084989    0.69116043    0.08690000
opls_144-127    H    0.10063005    0.57321987    0.97936096    0.11440000
opls_146-128    H    0.96863005    0.54382983    0.98645989    0.12160000
opls_185-129    H    0.01465002    0.59937997    0.35217914    0.10160000
opls_185-130    H    0.01102995    0.61090003    0.89391979    0.09860000
opls_185-131    H    0.05746997    0.64243995    0.13994118    0.10090000
opls_146-132    H    0.69320994    0.40819992    0.98485027    0.10590000
opls_146-133    H    0.65066981    0.42137986    0.27770053    0.06940000
opls_146-134    H    0.60357013    0.44774005    0.27286096    0.10650000
opls_146-135    H    0.51340000    0.33822006    0.68851872    0.06980000
opls_146-136    H    0.56084985    0.31206987    0.69116043    0.08690000
opls_144-137    H    0.57321987    0.47258996    0.97936096    0.11430000
opls_146-138    H    0.54382989    0.57520002    0.98645989    0.12160000
opls_185-139    H    0.59938003    0.58473002    0.35217914    0.10170000
opls_185-140    H    0.61090011    0.59986997    0.89391979    0.09860000
opls_185-141    H    0.64243997    0.58497006    0.13994118    0.10090000
opls_146-142    H    0.59180006    0.28500999    0.98485027    0.10590000
opls_146-143    H    0.57862011    0.22929012    0.27770053    0.06940000
opls_146-144    H    0.55225998    0.15583004    0.27286096    0.10640000
opls_146-145    H    0.66177989    0.17517995    0.68851872    0.06980000
opls_146-146    H    0.68792998    0.24878002    0.69116043    0.08700000
opls_144-147    H    0.52740991    0.10062991    0.97936096    0.11430000
opls_146-148    H    0.42479988    0.96862981    0.98645989    0.12160000
opls_185-149    H    0.41526999    0.01464995    0.35217914    0.10160000
opls_185-150    H    0.40013010    0.01103005    0.89391979    0.09860000
opls_185-151    H    0.41503001    0.05746989    0.13994118    0.10090000
opls_146-152    H    0.71499000    0.30679009    0.98485027    0.10590000
opls_146-153    H    0.77071008    0.34933002    0.27770053    0.06940000
opls_146-154    H    0.84416989    0.39642991    0.27286096    0.10650000
opls_146-155    H    0.82482011    0.48659999    0.68851872    0.06980000
opls_146-156    H    0.75122017    0.43915011    0.69116043    0.08690000
opls_144-157    H    0.89936979    0.42677982    0.97936096    0.11440000
opls_146-158    H    0.03136980    0.45616986    0.98645989    0.12160000
opls_185-159    H    0.98534998    0.40062003    0.35217914    0.10160000
opls_185-160    H    0.98897005    0.38909997    0.89391979    0.09860000
opls_185-161    H    0.94253003    0.35756005    0.13994118    0.10090000
