#======================================================================
# Crystal Data Generated By AuToFF
#----------------------------------------------------------------------

data_AuToFF_phase_1

_cell_length_a                         43.7554
_cell_length_b                         43.7554
_cell_length_c                         3.8921
_cell_angle_alpha                      90.00
_cell_angle_beta                       90.00
_cell_angle_gamma                      120.00
_symmetry_space_group_name_H-M_alt     'P 1'
_symmetry_space_group_IT_number        1

loop_
_space_group_symop_operation_xyz
   'x, y, z'

loop_
   _atom_site_label
   _atom_site_type_symbol
   _atom_site_fract_x
   _atom_site_fract_y
   _atom_site_fract_z
   _atom_site_charge
opls_145-0    C    0.43927994    0.52418990    0.56269880    -0.12070000
opls_145-1    C    0.42634992    0.54707997    0.50484057    -0.03290000
opls_145-2    C    0.48663010    0.38778000    0.09667018    -0.11890000
opls_145-3    C    0.50846004    0.37380998    0.17107988    -0.04910000
opls_145-4    C    0.52419001    0.43927988    0.43730120    -0.12070000
opls_145-5    C    0.54708002    0.42634989    0.49515943    -0.03290000
opls_145-6    C    0.38777989    0.48662995    0.90332982    -0.11880000
opls_145-7    C    0.37380995    0.50845994    0.82892012    -0.04910000
opls_145-8    C    0.49075010    0.47347011    0.06111097    -0.12150000
opls_145-9    C    0.47347002    0.49074995    0.93889931    -0.12150000
opls_700-10    C    0.43705998    0.47248998    0.86690989    0.03030000
opls_700-11    C    0.42027991    0.49356997    0.76409907    0.06860000
opls_145-12    C    0.39344002    0.53918992    0.63534082    -0.23450000
opls_145-13    C    0.35330010    0.40747003    0.68697875    -0.12930000
opls_145-14    C    0.32056005    0.37575993    0.68105907    -0.07880000
opls_145-15    C    0.31659001    0.34494999    0.83993988    -0.13290000
opls_700-16    C    0.34575987    0.34575990    0.00000000    0.08890000
opls_700-17    C    0.37752999    0.37752990    0.00000000    -0.02150000
opls_700-18    C    0.38156994    0.40815010    0.86305080    0.02150000
opls_700-19    C    0.40814991    0.38156993    0.13694920    0.02150000
opls_145-20    C    0.40746998    0.35330002    0.31302125    -0.12930000
opls_145-21    C    0.37575988    0.32055992    0.31894093    -0.07870000
opls_145-22    C    0.34494995    0.31659009    0.16006012    -0.13290000
opls_700-23    C    0.41868997    0.43561010    0.92478097    -0.00150000
opls_700-24    C    0.43561008    0.41868996    0.07521903    -0.00150000
opls_700-25    C    0.47248995    0.43705996    0.13309011    0.03030000
opls_700-26    C    0.49356991    0.42027995    0.23590093    0.06860000
opls_145-27    C    0.53919001    0.39344011    0.36465918    -0.23440000
opls_700-28    C    0.32519998    0.63079004    0.53172066    0.03180000
opls_700-29    C    0.36119997    0.65873008    0.51867886    0.02750000
opls_145-30    C    0.26161005    0.61176002    0.49001053    -0.23630000
opls_166-31    C    0.23520003    0.62031985    0.51332957    0.17350000
opls_166-32    C    0.24284002    0.65424987    0.56686879    0.17420000
opls_145-33    C    0.27738012    0.68188009    0.57239023    -0.25680000
opls_700-34    C    0.65873006    0.36120010    0.48132114    0.02750000
opls_700-35    C    0.63079001    0.32520006    0.46827934    0.03180000
opls_145-36    C    0.72261998    0.40449985    0.42762005    -0.24170000
opls_166-37    C    0.75715993    0.41141004    0.43313121    0.17420000
opls_166-38    C    0.76479995    0.38511990    0.48667043    0.17350000
opls_145-39    C    0.73838986    0.35014986    0.50998947    -0.23630000
opls_145-40    C    0.47580994    0.91508998    0.56269880    -0.12070000
opls_145-41    C    0.45291995    0.87926992    0.50484057    -0.03290000
opls_145-42    C    0.61221997    0.09884995    0.09667018    -0.11890000
opls_145-43    C    0.62618994    0.13464996    0.17107988    -0.04910000
opls_145-44    C    0.56071996    0.08491002    0.43730120    -0.12070000
opls_145-45    C    0.57365003    0.12073008    0.49515943    -0.03290000
opls_145-46    C    0.51337001    0.90115005    0.90332982    -0.11890000
opls_145-47    C    0.49153998    0.86535004    0.82892012    -0.04910000
opls_145-48    C    0.52652996    0.01728010    0.06111097    -0.12150000
opls_145-49    C    0.50924985    0.98271990    0.93889931    -0.12150000
opls_700-50    C    0.52751004    0.96456998    0.86690989    0.03030000
opls_700-51    C    0.50642990    0.92670998    0.76409907    0.06860000
opls_145-52    C    0.46080995    0.85424992    0.63534082    -0.23450000
opls_145-53    C    0.59252994    0.94582999    0.68697875    -0.12930000
opls_145-54    C    0.62424000    0.94479999    0.68105907    -0.07880000
opls_145-55    C    0.65505000    0.97163983    0.83993988    -0.13290000
opls_700-56    C    0.65423993    0.00000000    0.00000000    0.08890000
opls_700-57    C    0.62246991    0.00000000    0.00000000    -0.02150000
opls_700-58    C    0.59184985    0.97341983    0.86305080    0.02150000
opls_700-59    C    0.61842989    0.02657990    0.13694920    0.02150000
opls_145-60    C    0.64669996    0.05417001    0.31302125    -0.12930000
opls_145-61    C    0.67944001    0.05520001    0.31894093    -0.07880000
opls_145-62    C    0.68341003    0.02835990    0.16006012    -0.13290000
opls_700-63    C    0.56438991    0.98307985    0.92478097    -0.00150000
opls_700-64    C    0.58130992    0.01691988    0.07521903    -0.00150000
opls_700-65    C    0.56294006    0.03543002    0.13309011    0.03030000
opls_700-66    C    0.57971992    0.07329002    0.23590093    0.06860000
opls_145-67    C    0.60656002    0.14575008    0.36465918    -0.23450000
opls_700-68    C    0.36921006    0.69441001    0.53172066    0.03180000
opls_700-69    C    0.34127007    0.70247002    0.51867886    0.02750000
opls_145-70    C    0.38823987    0.64984988    0.49001053    -0.23630000
opls_166-71    C    0.37967992    0.61487984    0.51332957    0.17350000
opls_166-72    C    0.34574989    0.58858996    0.56686879    0.17420000
opls_145-73    C    0.31812000    0.59549989    0.57239023    -0.25680000
opls_700-74    C    0.63880005    0.29752998    0.48132114    0.02750000
opls_700-75    C    0.67480005    0.30558999    0.46827934    0.03180000
opls_145-76    C    0.59550003    0.31811991    0.42762005    -0.24170000
opls_166-77    C    0.58859002    0.34574987    0.43313121    0.17420000
opls_166-78    C    0.61488005    0.37967989    0.48667043    0.17350000
opls_145-79    C    0.64985002    0.38823998    0.50998947    -0.23630000
opls_145-80    C    0.08490999    0.56071985    0.56269880    -0.12070000
opls_145-81    C    0.12073000    0.57364985    0.50484057    -0.03290000
opls_145-82    C    0.90114993    0.51337005    0.09667018    -0.11890000
opls_145-83    C    0.86535001    0.49154006    0.17107988    -0.04910000
opls_145-84    C    0.91509004    0.47581010    0.43730120    -0.12070000
opls_145-85    C    0.87926995    0.45292003    0.49515943    -0.03290000
opls_145-86    C    0.09885010    0.61222000    0.90332982    -0.11890000
opls_145-87    C    0.13465006    0.62619002    0.82892012    -0.04910000
opls_145-88    C    0.98272007    0.50925005    0.06111097    -0.12150000
opls_145-89    C    0.01727999    0.52652989    0.93889931    -0.12150000
opls_700-90    C    0.03542999    0.56294004    0.86690989    0.03030000
opls_700-91    C    0.07328996    0.57972005    0.76409907    0.06860000
opls_145-92    C    0.14574991    0.60655989    0.63534082    -0.23450000
opls_145-93    C    0.05416996    0.64669998    0.68697875    -0.12930000
opls_145-94    C    0.05519996    0.67944008    0.68105907    -0.07880000
opls_145-95    C    0.02835986    0.68340991    0.83993988    -0.13290000
opls_700-96    C    0.99999984    0.65423984    0.00000000    0.08890000
opls_700-97    C    0.99999996    0.62246984    0.00000000    -0.02150000
opls_700-98    C    0.02657998    0.61843007    0.86305080    0.02150000
opls_700-99    C    0.97341984    0.59184990    0.13694920    0.02150000
opls_145-100    C    0.94583007    0.59252997    0.31302125    -0.12930000
opls_145-101    C    0.94480012    0.62424007    0.31894093    -0.07870000
opls_145-102    C    0.97164002    0.65505001    0.16006012    -0.13290000
opls_700-103    C    0.01692012    0.58131004    0.92478097    -0.00150000
opls_700-104    C    0.98307987    0.56438990    0.07521903    -0.00150000
opls_700-105    C    0.96456999    0.52751002    0.13309011    0.03030000
opls_700-106    C    0.92670994    0.50643003    0.23590093    0.06860000
opls_145-107    C    0.85425010    0.46081008    0.36465918    -0.23450000
opls_700-108    C    0.30558996    0.67479994    0.53172066    0.03180000
opls_700-109    C    0.29752997    0.63879990    0.51867886    0.02750000
opls_145-110    C    0.35014995    0.73838983    0.49001053    -0.23630000
opls_166-111    C    0.38511992    0.76480005    0.51332957    0.17350000
opls_166-112    C    0.41140996    0.75715991    0.56686879    0.17430000
opls_145-113    C    0.40450011    0.72262002    0.57239023    -0.25680000
opls_700-114    C    0.70246989    0.34126992    0.48132114    0.02750000
opls_700-115    C    0.69440994    0.36920996    0.46827934    0.03180000
opls_145-116    C    0.68188009    0.27737998    0.42762005    -0.24160000
opls_166-117    C    0.65425005    0.24284009    0.43313121    0.17420000
opls_166-118    C    0.62031987    0.23519995    0.48667043    0.17350000
opls_145-119    C    0.61175999    0.26160991    0.50998947    -0.23630000
opls_146-120    H    0.46456007    0.53091009    0.45278898    0.11980000
opls_146-121    H    0.44193001    0.57067993    0.35333881    0.11400000
opls_146-122    H    0.46499991    0.37359992    0.92110943    0.10010000
opls_146-123    H    0.50232993    0.34864985    0.06073071    0.11180000
opls_146-124    H    0.53091015    0.46456008    0.54721102    0.11980000
opls_146-125    H    0.57067998    0.44192996    0.64666119    0.11400000
opls_146-126    H    0.37360007    0.46500000    0.07889057    0.10010000
opls_146-127    H    0.34865016    0.50233010    0.93926929    0.11180000
opls_146-128    H    0.51904991    0.48912987    0.09340973    0.11920000
opls_146-129    H    0.48913000    0.51904994    0.90659027    0.11920000
opls_146-130    H    0.35606996    0.43008010    0.55096991    0.09580000
opls_146-131    H    0.29838986    0.37488986    0.54862927    0.11890000
opls_146-132    H    0.29132012    0.32079004    0.83210092    0.11460000
opls_146-133    H    0.43007995    0.35606990    0.44903009    0.09580000
opls_146-134    H    0.37489013    0.29839003    0.45137073    0.11900000
opls_146-135    H    0.32078988    0.29131991    0.16789908    0.11460000
opls_146-136    H    0.25338999    0.58436995    0.44832096    0.10040000
opls_146-137    H    0.28121986    0.70783983    0.61935973    0.10040000
opls_146-138    H    0.71878003    0.42661009    0.38064027    0.09560000
opls_146-139    H    0.74661003    0.33097997    0.55167904    0.10050000
opls_146-140    H    0.46909009    0.93364999    0.45278898    0.11980000
opls_146-141    H    0.42931996    0.87125003    0.35333881    0.11400000
opls_146-142    H    0.62640003    0.09140009    0.92110943    0.10010000
opls_146-143    H    0.65134988    0.15367998    0.06073071    0.11180000
opls_146-144    H    0.53544009    0.06635001    0.54721102    0.11990000
opls_146-145    H    0.55806994    0.12874997    0.64666119    0.11400000
opls_146-146    H    0.53499994    0.90859991    0.07889057    0.10010000
opls_146-147    H    0.49766990    0.84632002    0.93926929    0.11180000
opls_146-148    H    0.51087003    0.02992007    0.09340973    0.11920000
opls_146-149    H    0.48094995    0.97007993    0.90659027    0.11920000
opls_146-150    H    0.56992012    0.92599006    0.55096991    0.09580000
opls_146-151    H    0.62510991    0.92349991    0.54862927    0.11890000
opls_146-152    H    0.67920991    0.97052987    0.83210092    0.11470000
opls_146-153    H    0.64393006    0.07400994    0.44903009    0.09580000
opls_146-154    H    0.70160999    0.07650009    0.45137073    0.11890000
opls_146-155    H    0.70868004    0.02947013    0.16789908    0.11460000
opls_146-156    H    0.41563006    0.66902003    0.44832096    0.10040000
opls_146-157    H    0.29215989    0.57337988    0.61935973    0.10040000
opls_146-158    H    0.57338994    0.29216993    0.38064027    0.09550000
opls_146-159    H    0.66902004    0.41563005    0.55167904    0.10040000
opls_146-160    H    0.06635007    0.53543992    0.45278898    0.11980000
opls_146-161    H    0.12875003    0.55807004    0.35333881    0.11400000
opls_146-162    H    0.90860007    0.53500000    0.92110943    0.10010000
opls_146-163    H    0.84632006    0.49766990    0.06073071    0.11190000
opls_146-164    H    0.93364998    0.46908991    0.54721102    0.11980000
opls_146-165    H    0.87125008    0.42932007    0.64666119    0.11400000
opls_146-166    H    0.09139999    0.62640008    0.07889057    0.10010000
opls_146-167    H    0.15367994    0.65134988    0.93926929    0.11180000
opls_146-168    H    0.97008006    0.48095006    0.09340973    0.11920000
opls_146-169    H    0.02991991    0.51086987    0.90659027    0.11920000
opls_146-170    H    0.07400992    0.64392984    0.55096991    0.09580000
opls_146-171    H    0.07649987    0.70160997    0.54862927    0.11890000
opls_146-172    H    0.02946997    0.70868009    0.83210092    0.11460000
opls_146-173    H    0.92598986    0.56991990    0.44903009    0.09580000
opls_146-174    H    0.92349988    0.62510988    0.45137073    0.11890000
opls_146-175    H    0.97053008    0.67920996    0.16789908    0.11460000
opls_146-176    H    0.33097995    0.74661002    0.44832096    0.10040000
opls_146-177    H    0.42662012    0.71878003    0.61935973    0.10040000
opls_146-178    H    0.70783003    0.28121997    0.38064027    0.09550000
opls_146-179    H    0.58436993    0.25338998    0.55167904    0.10040000
MOF2_B_2-180    B    0.37976010    0.56544998    0.57650883    0.56460000
MOF2_B_2-181    B    0.56545016    0.37976011    0.42349117    0.56450000
MOF2_B_2-182    B    0.43454995    0.81430987    0.57650883    0.56450000
MOF2_B_2-183    B    0.62023995    0.18568987    0.42349117    0.56460000
MOF2_B_2-184    B    0.18569005    0.62023989    0.57650883    0.56450000
MOF2_B_2-185    B    0.81431012    0.43455002    0.42349117    0.56460000
opls_167-186    O    0.19938003    0.59643990    0.50821921    -0.35640000
opls_167-187    O    0.21308004    0.65723008    0.61532078    -0.35640000
opls_167-188    O    0.78691996    0.44414987    0.38468950    -0.35640000
opls_167-189    O    0.80062003    0.39706001    0.49178079    -0.35630000
opls_167-190    O    0.40356002    0.60293999    0.50821921    -0.35640000
opls_167-191    O    0.34276996    0.55584986    0.61532078    -0.35640000
opls_167-192    O    0.55584996    0.34276992    0.38468950    -0.35630000
opls_167-193    O    0.60294014    0.40356010    0.49178079    -0.35640000
opls_167-194    O    0.39705981    0.80061985    0.50821921    -0.35640000
opls_167-195    O    0.44415000    0.78692006    0.61532078    -0.35630000
opls_167-196    O    0.65722994    0.21307994    0.38468950    -0.35640000
opls_167-197    O    0.59643983    0.19937989    0.49178079    -0.35640000
