#======================================================================
# Crystal Data Generated By AuToFF
#----------------------------------------------------------------------

data_AuToFF_phase_1

_cell_length_a                         44.7381
_cell_length_b                         44.7381
_cell_length_c                         3.5310
_cell_angle_alpha                      90.00
_cell_angle_beta                       90.00
_cell_angle_gamma                      120.00
_symmetry_space_group_name_H-M_alt     'P 1'
_symmetry_space_group_IT_number        1

loop_
_space_group_symop_operation_xyz
   'x, y, z'

loop_
   _atom_site_label
   _atom_site_type_symbol
   _atom_site_fract_x
   _atom_site_fract_y
   _atom_site_fract_z
   _atom_site_charge
opls_700-0    C    0.34949999    0.70298002    0.00000000    0.06390000
opls_700-1    C    0.29701989    0.64651989    0.00000000    0.06390000
opls_700-2    C    0.35348012    0.65050009    0.00000000    0.06390000
opls_700-3    C    0.65050001    0.29701998    0.00000000    0.06390000
opls_700-4    C    0.70298011    0.35348011    0.00000000    0.06390000
opls_700-5    C    0.64651988    0.34949991    0.00000000    0.06390000
opls_145-6    C    0.36923006    0.68657995    0.00000000    -0.09980000
opls_145-7    C    0.31341997    0.68265008    0.00000000    -0.09990000
opls_145-8    C    0.31734998    0.63076997    0.00000000    -0.09990000
opls_145-9    C    0.63076994    0.31342005    0.00000000    -0.09990000
opls_145-10    C    0.68658003    0.31734992    0.00000000    -0.09990000
opls_145-11    C    0.68265002    0.36923003    0.00000000    -0.09990000
opls_700-12    C    0.37464000    0.63352005    0.00000000    0.05410000
opls_700-13    C    0.36648006    0.74112006    0.00000000    0.05410000
opls_700-14    C    0.25887994    0.62535989    0.00000000    0.05410000
opls_700-15    C    0.62536000    0.36647995    0.00000000    0.05410000
opls_700-16    C    0.63351994    0.25887994    0.00000000    0.05410000
opls_700-17    C    0.74112006    0.37464011    0.00000000    0.05410000
opls_145-18    C    0.41083004    0.65328011    0.00000000    -0.14090000
opls_145-19    C    0.34672003    0.75755007    0.00000000    -0.14100000
opls_145-20    C    0.24245006    0.58917008    0.00000000    -0.14100000
opls_145-21    C    0.58916996    0.34671989    0.00000000    -0.14090000
opls_145-22    C    0.65327997    0.24244993    0.00000000    -0.14100000
opls_145-23    C    0.75754994    0.41082992    0.00000000    -0.14210000
opls_145-24    C    0.43080998    0.63728009    0.00000000    -0.18860000
opls_145-25    C    0.36271999    0.79353005    0.00000000    -0.18850000
opls_145-26    C    0.20647015    0.56919012    0.00000000    -0.18860000
opls_145-27    C    0.56919002    0.36271991    0.00000000    -0.18860000
opls_145-28    C    0.63728001    0.20646995    0.00000000    -0.18860000
opls_145-29    C    0.79352998    0.43081013    0.00000000    -0.18860000
opls_145-30    C    0.41500002    0.60130011    0.00000000    0.17040000
opls_145-31    C    0.39869988    0.81369997    0.00000000    0.17040000
opls_145-32    C    0.18629988    0.58499992    0.00000000    0.17040000
opls_145-33    C    0.58499998    0.39869989    0.00000000    0.17040000
opls_145-34    C    0.60130012    0.18630003    0.00000000    0.17040000
opls_145-35    C    0.81370012    0.41500008    0.00000000    0.17040000
opls_145-36    C    0.37882999    0.58136997    0.00000000    -0.18270000
opls_145-37    C    0.41863000    0.79745991    0.00000000    -0.18270000
opls_145-38    C    0.20254001    0.62117012    0.00000000    -0.18270000
opls_145-39    C    0.62117001    0.41863003    0.00000000    -0.18270000
opls_145-40    C    0.58137000    0.20254009    0.00000000    -0.18270000
opls_145-41    C    0.79745999    0.37882988    0.00000000    -0.18270000
opls_145-42    C    0.35887005    0.59738006    0.00000000    -0.14210000
opls_145-43    C    0.40262009    0.76149000    0.00000000    -0.14100000
opls_145-44    C    0.23851008    0.64112994    0.00000000    -0.14130000
opls_145-45    C    0.64112995    0.40261994    0.00000000    -0.14210000
opls_145-46    C    0.59737991    0.23851000    0.00000000    -0.14100000
opls_145-47    C    0.76148992    0.35887006    0.00000000    -0.14130000
opls_142-48    C    0.42373991    0.55257995    0.00000000    0.04160000
opls_142-49    C    0.44742001    0.87115999    0.00000000    0.04160000
opls_142-50    C    0.12884007    0.57626006    0.00000000    0.04160000
opls_142-51    C    0.57626009    0.44742005    0.00000000    0.04160000
opls_142-52    C    0.55257999    0.12884001    0.00000000    0.04160000
opls_142-53    C    0.87115993    0.42373994    0.00000000    0.04160000
opls_700-54    C    0.44637993    0.53767997    0.00000000    0.04910000
opls_700-55    C    0.46231991    0.90869993    0.00000000    0.04910000
opls_700-56    C    0.09130016    0.55362010    0.00000000    0.04910000
opls_700-57    C    0.55362007    0.46232003    0.00000000    0.04910000
opls_700-58    C    0.53768009    0.09130007    0.00000000    0.04910000
opls_700-59    C    0.90869984    0.44637990    0.00000000    0.04910000
opls_145-60    C    0.43168009    0.50182001    0.00000000    -0.13430000
opls_145-61    C    0.49817992    0.92985993    0.00000000    -0.13430000
opls_145-62    C    0.07013999    0.56832006    0.00000000    -0.13430000
opls_145-63    C    0.56831991    0.49817999    0.00000000    -0.13430000
opls_145-64    C    0.50182008    0.07014007    0.00000000    -0.13430000
opls_145-65    C    0.92986001    0.43167994    0.00000000    -0.13430000
opls_145-66    C    0.45274002    0.48700003    0.00000000    -0.13810000
opls_145-67    C    0.51300003    0.96574002    0.00000000    -0.13800000
opls_145-68    C    0.03425995    0.54725995    0.00000000    -0.13730000
opls_145-69    C    0.54725998    0.51299997    0.00000000    -0.13810000
opls_145-70    C    0.48699997    0.03425998    0.00000000    -0.13810000
opls_145-71    C    0.96574005    0.45274005    0.00000000    -0.13810000
opls_700-72    C    0.48884012    0.50786012    0.00000000    0.05400000
opls_700-73    C    0.49214001    0.98097993    0.00000000    0.05400000
opls_700-74    C    0.01902009    0.51115996    0.00000000    0.05410000
opls_700-75    C    0.51116000    0.49214014    0.00000000    0.05440000
opls_700-76    C    0.50785999    0.01902007    0.00000000    0.05400000
opls_700-77    C    0.98097991    0.48884004    0.00000000    0.05400000
opls_145-78    C    0.50341009    0.54388010    0.00000000    -0.13310000
opls_145-79    C    0.45612009    0.95953008    0.00000000    -0.14660000
opls_145-80    C    0.04046994    0.49659008    0.00000000    -0.13320000
opls_145-81    C    0.49658991    0.45611990    0.00000000    -0.13320000
opls_145-82    C    0.54387991    0.04046992    0.00000000    -0.13310000
opls_145-83    C    0.95953006    0.50340992    0.00000000    -0.13320000
opls_145-84    C    0.48236011    0.55871014    0.00000000    -0.13250000
opls_145-85    C    0.44128993    0.92364999    0.00000000    -0.13250000
opls_145-86    C    0.07635009    0.51764013    0.00000000    -0.13200000
opls_145-87    C    0.51764001    0.44129012    0.00000000    -0.13250000
opls_145-88    C    0.55871007    0.07635001    0.00000000    -0.13250000
opls_145-89    C    0.92365004    0.48236013    0.00000000    -0.13200000
opls_750-90    N    0.43620002    0.58569989    0.00000000    -0.39610000
opls_750-91    N    0.41430001    0.85049993    0.00000000    -0.39600000
opls_750-92    N    0.14950006    0.56379992    0.00000000    -0.39610000
opls_750-93    N    0.56379998    0.41430011    0.00000000    -0.39620000
opls_750-94    N    0.58569999    0.14950007    0.00000000    -0.39610000
opls_750-95    N    0.85049994    0.43620008    0.00000000    -0.39620000
opls_146-96    H    0.39612991    0.70147993    0.00000000    0.21340000
opls_146-97    H    0.29852008    0.69465003    0.00000000    0.21350000
opls_146-98    H    0.30535012    0.60388010    0.00000000    0.21340000
opls_146-99    H    0.60388014    0.29852007    0.00000000    0.21340000
opls_146-100    H    0.70147992    0.30534997    0.00000000    0.21340000
opls_146-101    H    0.69464988    0.39611990    0.00000000    0.21340000
opls_146-102    H    0.42600991    0.68086995    0.00000000    0.21250000
opls_146-103    H    0.31912998    0.74515006    0.00000000    0.21250000
opls_146-104    H    0.25486000    0.57399005    0.00000000    0.21260000
opls_146-105    H    0.57399009    0.31913005    0.00000000    0.21250000
opls_146-106    H    0.68087002    0.25484994    0.00000000    0.21250000
opls_146-107    H    0.74515006    0.42600995    0.00000000    0.21250000
opls_146-108    H    0.45868996    0.65266014    0.00000000    0.10180000
opls_146-109    H    0.34734005    0.80602994    0.00000000    0.10180000
opls_146-110    H    0.19396998    0.54130992    0.00000000    0.10180000
opls_146-111    H    0.54131017    0.34734011    0.00000000    0.10180000
opls_146-112    H    0.65265995    0.19397006    0.00000000    0.10190000
opls_146-113    H    0.80603002    0.45869008    0.00000000    0.10190000
opls_146-114    H    0.36455998    0.55366011    0.00000000    0.08410000
opls_146-115    H    0.44634002    0.81090007    0.00000000    0.08420000
opls_146-116    H    0.18910014    0.63544008    0.00000000    0.08410000
opls_146-117    H    0.63544002    0.44633989    0.00000000    0.08420000
opls_146-118    H    0.55365998    0.18909993    0.00000000    0.08410000
opls_146-119    H    0.81089986    0.36455992    0.00000000    0.08410000
opls_146-120    H    0.33168005    0.57947008    0.00000000    0.21250000
opls_146-121    H    0.42052998    0.75220013    0.00000000    0.08290000
opls_146-122    H    0.24780004    0.66831998    0.00000000    0.21260000
opls_146-123    H    0.66831995    0.42052992    0.00000000    0.21250000
opls_146-124    H    0.57947015    0.24780013    0.00000000    0.08290000
opls_146-125    H    0.75219996    0.33168002    0.00000000    0.21250000
opls_144-126    H    0.39659990    0.53419997    0.00000000    0.09130000
opls_144-127    H    0.46580004    0.86240000    0.00000000    0.09130000
opls_144-128    H    0.13760007    0.60340003    0.00000000    0.09140000
opls_144-129    H    0.60340010    0.46580003    0.00000000    0.09130000
opls_144-130    H    0.53419996    0.13760000    0.00000000    0.09130000
opls_144-131    H    0.86239993    0.39659997    0.00000000    0.09130000
opls_146-132    H    0.40390012    0.48517009    0.00000000    0.09910000
opls_146-133    H    0.51483005    0.91873004    0.00000000    0.09920000
opls_146-134    H    0.08126996    0.59610013    0.00000000    0.09910000
opls_146-135    H    0.59609988    0.51482991    0.00000000    0.09910000
opls_146-136    H    0.48516995    0.08126996    0.00000000    0.09910000
opls_146-137    H    0.91873017    0.40390013    0.00000000    0.09910000
opls_146-138    H    0.43906992    0.45932992    0.00000000    0.09300000
opls_146-139    H    0.54067010    0.97974000    0.00000000    0.09300000
opls_146-140    H    0.02026009    0.56094014    0.00000000    0.09310000
opls_146-141    H    0.56094014    0.54067008    0.00000000    0.09300000
opls_146-142    H    0.45932990    0.02026000    0.00000000    0.09300000
opls_146-143    H    0.97974002    0.43906992    0.00000000    0.09300000
opls_146-144    H    0.53057002    0.56207011    0.00000000    0.09300000
opls_146-145    H    0.43793999    0.96849991    0.00000000    0.09300000
opls_146-146    H    0.03150006    0.46942998    0.00000000    0.09300000
opls_146-147    H    0.46942987    0.43793995    0.00000000    0.09300000
opls_146-148    H    0.56207007    0.03150009    0.00000000    0.09310000
opls_146-149    H    0.96849994    0.53057002    0.00000000    0.09300000
opls_146-150    H    0.49407995    0.58655008    0.00000000    0.09820000
opls_146-151    H    0.41345001    0.90754002    0.00000000    0.09830000
opls_146-152    H    0.09245987    0.50591996    0.00000000    0.10060000
opls_146-153    H    0.50592005    0.41344992    0.00000000    0.09820000
opls_146-154    H    0.58654999    0.09245998    0.00000000    0.09820000
opls_146-155    H    0.90754013    0.49408004    0.00000000    0.10060000
