#======================================================================
# Crystal Data Generated By AuToFF
#----------------------------------------------------------------------

data_AuToFF_phase_1

_cell_length_a                         29.7273
_cell_length_b                         29.7273
_cell_length_c                         3.7843
_cell_angle_alpha                      90.00
_cell_angle_beta                       90.00
_cell_angle_gamma                      120.00
_symmetry_space_group_name_H-M_alt     'P 1'
_symmetry_space_group_IT_number        1

loop_
_space_group_symop_operation_xyz
   'x, y, z'

loop_
   _atom_site_label
   _atom_site_type_symbol
   _atom_site_fract_x
   _atom_site_fract_y
   _atom_site_fract_z
   _atom_site_charge
opls_238-0    N    0.39854000    0.80770997    0.66093069    -0.26440000
opls_238-1    N    0.43871998    0.54211990    0.63813123    -0.36720000
opls_238-2    N    0.19228989    0.59082992    0.66093069    -0.26440000
opls_238-3    N    0.45788011    0.89660006    0.63813123    -0.36720000
opls_238-4    N    0.40917011    0.60146011    0.66093069    -0.26440000
opls_238-5    N    0.10339991    0.56128004    0.63813123    -0.36720000
opls_238-6    N    0.60146000    0.19229003    0.33906931    -0.26440000
opls_238-7    N    0.56128002    0.45788010    0.36186877    -0.36720000
opls_238-8    N    0.80771011    0.40917008    0.33906931    -0.26440000
opls_238-9    N    0.54211989    0.10339994    0.36186877    -0.36720000
opls_238-10    N    0.59082989    0.39853989    0.33906931    -0.26440000
opls_238-11    N    0.89660009    0.43871996    0.36186877    -0.36720000
opls_281-12    O    0.42748010    0.74170001    0.67580002    -0.38540000
opls_281-13    O    0.25830004    0.68577993    0.67580002    -0.38540000
opls_281-14    O    0.31422019    0.57252006    0.67580002    -0.38540000
opls_281-15    O    0.57251990    0.25829999    0.32419998    -0.38540000
opls_281-16    O    0.74169996    0.31422007    0.32419998    -0.38540000
opls_281-17    O    0.68577981    0.42747994    0.32419998    -0.38540000
opls_142-18    C    0.35075999    0.76445002    0.66786988    0.10550000
opls_280-19    C    0.38484008    0.70789991    0.67293026    0.24120000
opls_145-20    C    0.34351994    0.71842988    0.67135005    -0.10440000
opls_141-21    C    0.44976990    0.59245978    0.66343049    0.35770000
opls_145-22    C    0.54907006    0.52827001    0.39094945    -0.21550000
opls_145-23    C    0.52040002    0.55283982    0.45803980    -0.21520000
opls_916-24    C    0.47077991    0.52241985    0.57155881    0.18990000
opls_142-25    C    0.23554991    0.58630975    0.66786988    0.10550000
opls_280-26    C    0.29210017    0.67694002    0.67293026    0.24120000
opls_145-27    C    0.28157007    0.62508992    0.67135005    -0.10440000
opls_141-28    C    0.40754001    0.85730988    0.66343049    0.35770000
opls_145-29    C    0.47173020    0.02080009    0.39094945    -0.21550000
opls_145-30    C    0.44716002    0.96755980    0.45803980    -0.21530000
opls_916-31    C    0.47757993    0.94836004    0.57155881    0.18990000
opls_142-32    C    0.41368990    0.64923984    0.66786988    0.10550000
opls_280-33    C    0.32306008    0.61516007    0.67293026    0.24120000
opls_145-34    C    0.37490980    0.65647981    0.67135005    -0.10440000
opls_141-35    C    0.14268990    0.55022995    0.66343049    0.35770000
opls_145-36    C    0.97920007    0.45092990    0.39094945    -0.21550000
opls_145-37    C    0.03244010    0.47959999    0.45803980    -0.21520000
opls_916-38    C    0.05164016    0.52922011    0.57155881    0.18990000
opls_142-39    C    0.64924001    0.23554998    0.33213012    0.10550000
opls_280-40    C    0.61515992    0.29210009    0.32706974    0.24120000
opls_145-41    C    0.65648006    0.28157012    0.32864995    -0.10440000
opls_141-42    C    0.55022990    0.40753983    0.33656951    0.35750000
opls_145-43    C    0.45092994    0.47172999    0.60905055    -0.21550000
opls_145-44    C    0.47959978    0.44715979    0.54196020    -0.21520000
opls_916-45    C    0.52921989    0.47757976    0.42844119    0.18990000
opls_142-46    C    0.76444989    0.41368986    0.33213012    0.10550000
opls_280-47    C    0.70789983    0.32305998    0.32706974    0.24120000
opls_145-48    C    0.71842993    0.37491008    0.32864995    -0.10450000
opls_141-49    C    0.59245999    0.14269012    0.33656951    0.35770000
opls_145-50    C    0.52826980    0.97919991    0.60905055    -0.21550000
opls_145-51    C    0.55283978    0.03243981    0.54196020    -0.21520000
opls_916-52    C    0.52242007    0.05163996    0.42844119    0.18990000
opls_142-53    C    0.58630991    0.35075977    0.33213012    0.10550000
opls_280-54    C    0.67693992    0.38483993    0.32706974    0.24120000
opls_145-55    C    0.62509001    0.34351981    0.32864995    -0.10440000
opls_141-56    C    0.85731010    0.44977005    0.33656951    0.35770000
opls_145-57    C    0.02079993    0.54907010    0.60905055    -0.21550000
opls_145-58    C    0.96755990    0.52040001    0.54196020    -0.21520000
opls_916-59    C    0.94835984    0.47077989    0.42844119    0.18980000
opls_474-60    S    0.49928991    0.63227007    0.72643025    -0.14100000
opls_474-61    S    0.36773000    0.86701988    0.72643025    -0.14100000
opls_474-62    S    0.13298009    0.50071005    0.72643025    -0.14100000
opls_474-63    S    0.50071009    0.36772993    0.27356975    -0.14100000
opls_474-64    S    0.63227000    0.13298012    0.27356975    -0.14100000
opls_474-65    S    0.86701991    0.49928995    0.27356975    -0.14100000
opls_910-66    H    0.43206995    0.80419972    0.65293978    0.24430000
opls_144-67    H    0.31631014    0.76805000    0.67072906    0.10860000
opls_910-68    H    0.40021006    0.51157990    0.67234099    0.24430000
opls_146-69    H    0.58921986    0.55248984    0.30474064    0.09690000
opls_146-70    H    0.53822995    0.59437979    0.41836007    0.10490000
opls_910-71    H    0.19580012    0.62786992    0.65293978    0.24430000
opls_144-72    H    0.23194983    0.54825983    0.67072906    0.10860000
opls_910-73    H    0.48841984    0.88862985    0.67234099    0.24430000
opls_146-74    H    0.44750994    0.03673003    0.30474064    0.09690000
opls_146-75    H    0.40561994    0.94384997    0.41836007    0.10490000
opls_910-76    H    0.37213007    0.56792997    0.65293978    0.24430000
opls_144-77    H    0.45173984    0.68368978    0.67072906    0.10860000
opls_910-78    H    0.11136990    0.59978986    0.67234099    0.24430000
opls_146-79    H    0.96327019    0.41078012    0.30474064    0.09690000
opls_146-80    H    0.05614992    0.46176985    0.41836007    0.10490000
opls_910-81    H    0.56792985    0.19579990    0.34706022    0.24430000
opls_144-82    H    0.68368986    0.23195000    0.32927094    0.10860000
opls_910-83    H    0.59978994    0.48842010    0.32765901    0.24430000
opls_146-84    H    0.41077994    0.44750977    0.69525936    0.09690000
opls_146-85    H    0.46176986    0.40561982    0.58163993    0.10490000
opls_910-86    H    0.80419988    0.37213008    0.34706022    0.24430000
opls_144-87    H    0.76804997    0.45173978    0.32927094    0.10860000
opls_910-88    H    0.51158016    0.11137015    0.32765901    0.24430000
opls_146-89    H    0.55249006    0.96326997    0.69525936    0.09690000
opls_146-90    H    0.59438006    0.05615003    0.58163993    0.10490000
opls_910-91    H    0.62786993    0.43207003    0.34706022    0.24430000
opls_144-92    H    0.54825997    0.31630983    0.32927094    0.10860000
opls_910-93    H    0.88863010    0.40021014    0.32765901    0.24430000
opls_146-94    H    0.03672981    0.58921988    0.69525936    0.09690000
opls_146-95    H    0.94384989    0.53822976    0.58163993    0.10420000
