#======================================================================
# Crystal Data Generated By AuToFF
#----------------------------------------------------------------------

data_AuToFF_phase_1

_cell_length_a                         23.4440
_cell_length_b                         19.6290
_cell_length_c                         3.5578
_cell_angle_alpha                      90.00
_cell_angle_beta                       90.00
_cell_angle_gamma                      90.00
_symmetry_space_group_name_H-M_alt     'P 1'
_symmetry_space_group_IT_number        1

loop_
_space_group_symop_operation_xyz
   'x, y, z'

loop_
   _atom_site_label
   _atom_site_type_symbol
   _atom_site_fract_x
   _atom_site_fract_y
   _atom_site_fract_z
   _atom_site_charge
opls_750-0    N    0.25220995    0.67945998    0.36556018    -0.23580000
opls_750-1    N    0.74779005    0.32054002    0.36556018    -0.23580000
opls_750-2    N    0.74779005    0.67945998    0.63443139    -0.23580000
opls_750-3    N    0.25220995    0.32054002    0.63443139    -0.23580000
opls_542-4    N    0.96964980    0.50000000    0.49998876    0.00710000
opls_542-5    N    0.03035020    0.50000000    0.49998876    0.00710000
opls_145-6    C    0.39664989    0.03535025    0.50582101    -0.10650000
opls_700-7    C    0.44754010    0.92764023    0.48942886    0.03990000
opls_700-8    C    0.44756014    0.85548984    0.47814099    0.03460000
opls_700-9    C    0.39538987    0.81173977    0.44548035    0.08320000
opls_145-10    C    0.34139993    0.83807988    0.35286132    -0.07520000
opls_145-11    C    0.29385984    0.79532987    0.32126033    -0.13110000
opls_145-12    C    0.29973981    0.72497988    0.37888864    0.23810000
opls_145-13    C    0.35317011    0.69826991    0.46742931    -0.10640000
opls_145-14    C    0.40035020    0.74103011    0.49939007    -0.07300000
opls_142-15    C    0.79972018    0.69704009    0.71330035    0.01630000
opls_543-16    C    0.93400017    0.55278007    0.58558098    0.13040000
opls_716-17    C    0.87774015    0.46648989    0.44965990    -0.00500000
opls_142-18    C    0.83263010    0.42168017    0.39928889    -0.07810000
opls_700-19    C    0.84545001    0.35394009    0.30256900    0.03360000
opls_261-20    C    0.90270005    0.33411025    0.24750126    -0.00640000
opls_142-21    C    0.94747014    0.38103979    0.30012929    -0.14930000
opls_145-22    C    0.60335011    0.96464975    0.50582101    -0.10650000
opls_700-23    C    0.55245990    0.07235977    0.48942886    0.03990000
opls_700-24    C    0.55243986    0.14451016    0.47814099    0.03460000
opls_700-25    C    0.60461013    0.18826023    0.44548035    0.08320000
opls_145-26    C    0.65860007    0.16192012    0.35286132    -0.07520000
opls_145-27    C    0.70614016    0.20467013    0.32126033    -0.13110000
opls_145-28    C    0.70026019    0.27502012    0.37888864    0.23810000
opls_145-29    C    0.64682989    0.30173009    0.46742931    -0.10640000
opls_145-30    C    0.59964980    0.25896989    0.49939007    -0.07300000
opls_142-31    C    0.20027982    0.30295991    0.71330035    0.01630000
opls_543-32    C    0.06599983    0.44721993    0.58558098    0.13040000
opls_716-33    C    0.12225985    0.53351011    0.44965990    -0.00500000
opls_142-34    C    0.16736990    0.57831983    0.39928889    -0.07810000
opls_700-35    C    0.15454999    0.64605991    0.30256900    0.03360000
opls_261-36    C    0.09729995    0.66588975    0.24750126    -0.00640000
opls_142-37    C    0.05252986    0.61896021    0.30012929    -0.14930000
opls_145-38    C    0.60335011    0.03535025    0.49415931    -0.10650000
opls_700-39    C    0.55245990    0.92764023    0.51054865    0.03990000
opls_700-40    C    0.55243986    0.85548984    0.52185058    0.03460000
opls_700-41    C    0.60461013    0.81173977    0.55451121    0.08320000
opls_145-42    C    0.65860007    0.83807988    0.64713025    -0.07520000
opls_145-43    C    0.70614016    0.79532987    0.67873124    -0.13110000
opls_145-44    C    0.70026019    0.72497988    0.62110012    0.23810000
opls_145-45    C    0.64682989    0.69826991    0.53255945    -0.10640000
opls_145-46    C    0.59964980    0.74103011    0.50059025    -0.07290000
opls_142-47    C    0.20027982    0.69704009    0.28669121    0.01630000
opls_543-48    C    0.06599983    0.55278007    0.41441059    0.13040000
opls_716-49    C    0.12225985    0.46648989    0.55032885    -0.00500000
opls_142-50    C    0.16736990    0.42168017    0.60069987    -0.07810000
opls_700-51    C    0.15454999    0.35394009    0.69741975    0.03360000
opls_261-52    C    0.09729995    0.33411025    0.75249030    -0.00640000
opls_142-53    C    0.05252986    0.38103979    0.69985946    -0.14930000
opls_145-54    C    0.39664989    0.96464975    0.49415931    -0.10650000
opls_700-55    C    0.44754010    0.07235977    0.51054865    0.03990000
opls_700-56    C    0.44756014    0.14451016    0.52185058    0.03460000
opls_700-57    C    0.39538987    0.18826023    0.55451121    0.08320000
opls_145-58    C    0.34139993    0.16192012    0.64713025    -0.07520000
opls_145-59    C    0.29385984    0.20467013    0.67873124    -0.13110000
opls_145-60    C    0.29973981    0.27502012    0.62110012    0.23810000
opls_145-61    C    0.35317011    0.30173009    0.53255945    -0.10640000
opls_145-62    C    0.40035020    0.25896989    0.50059025    -0.07290000
opls_142-63    C    0.79972018    0.30295991    0.28669121    0.01630000
opls_543-64    C    0.93400017    0.44721993    0.41441059    0.13040000
opls_716-65    C    0.87774015    0.53351011    0.55032885    -0.00500000
opls_142-66    C    0.83263010    0.57831983    0.60069987    -0.07810000
opls_700-67    C    0.84545001    0.64605991    0.69741975    0.03360000
opls_261-68    C    0.90270005    0.66588975    0.75249030    -0.00640000
opls_142-69    C    0.94747014    0.61896021    0.69985946    -0.14930000
opls_700-70    C    0.50000000    0.96373987    0.49998876    0.03370000
opls_145-71    C    0.50000000    0.82193999    0.49998876    -0.07810000
opls_700-72    C    0.50000000    0.03626013    0.49998876    0.03370000
opls_145-73    C    0.50000000    0.17806001    0.49998876    -0.07810000
opls_146-74    H    0.35439004    0.06407000    0.51170948    0.05060000
opls_146-75    H    0.33587016    0.89505018    0.30227107    0.05060000
opls_146-76    H    0.25035020    0.81766977    0.24865928    0.05060000
opls_146-77    H    0.35844011    0.64116002    0.51407893    0.05060000
opls_146-78    H    0.44396989    0.71882011    0.57043960    0.05060000
opls_144-79    H    0.80973981    0.75192012    0.79463995    0.02980000
opls_144-80    H    0.78659998    0.43923022    0.43517904    0.05060000
opls_144-81    H    0.99367983    0.36535993    0.25057058    0.05060000
opls_146-82    H    0.64560996    0.93593000    0.51170948    0.05060000
opls_146-83    H    0.66412984    0.10494982    0.30227107    0.05060000
opls_146-84    H    0.74964980    0.18233023    0.24865928    0.05060000
opls_146-85    H    0.64155989    0.35883998    0.51407893    0.05060000
opls_146-86    H    0.55603011    0.28117989    0.57043960    0.05060000
opls_144-87    H    0.19026019    0.24807988    0.79463995    0.02980000
opls_144-88    H    0.21340002    0.56076978    0.43517904    0.05060000
opls_144-89    H    0.00632017    0.63464007    0.25057058    0.05060000
opls_146-90    H    0.64560996    0.06407000    0.48827927    0.05060000
opls_146-91    H    0.66412984    0.89505018    0.69772050    0.05060000
opls_146-92    H    0.74964980    0.81766977    0.75132947    0.05060000
opls_146-93    H    0.64155989    0.64116002    0.48590983    0.05060000
opls_146-94    H    0.55603011    0.71882011    0.42954916    0.05060000
opls_144-95    H    0.19026019    0.75192012    0.20534881    0.02980000
opls_144-96    H    0.21340002    0.43923022    0.56480971    0.05060000
opls_144-97    H    0.00632017    0.36535993    0.74942099    0.05060000
opls_146-98    H    0.35439004    0.93593000    0.48827927    0.05060000
opls_146-99    H    0.33587016    0.10494982    0.69772050    0.05060000
opls_146-100    H    0.25035020    0.18233023    0.75132947    0.05060000
opls_146-101    H    0.35844011    0.35883998    0.48590983    0.05060000
opls_146-102    H    0.44396989    0.28117989    0.42954916    0.05060000
opls_144-103    H    0.80973981    0.24807988    0.20534881    0.02980000
opls_144-104    H    0.78659998    0.56076978    0.56480971    0.05060000
opls_144-105    H    0.99367983    0.63464007    0.74942099    0.05060000
opls_146-106    H    0.50000000    0.76389016    0.49998876    0.05060000
opls_146-107    H    0.50000000    0.23610984    0.49998876    0.05060000
