#======================================================================
# Crystal Data Generated By AuToFF
#----------------------------------------------------------------------

data_AuToFF_phase_1

_cell_length_a                         26.0770
_cell_length_b                         26.0770
_cell_length_c                         4.2860
_cell_angle_alpha                      90.00
_cell_angle_beta                       90.00
_cell_angle_gamma                      120.00
_symmetry_space_group_name_H-M_alt     'P 1'
_symmetry_space_group_IT_number        1

loop_
_space_group_symop_operation_xyz
   'x, y, z'

loop_
   _atom_site_label
   _atom_site_type_symbol
   _atom_site_fract_x
   _atom_site_fract_y
   _atom_site_fract_z
   _atom_site_charge
opls_145-0    C    0.22094996    0.15244025    0.55985068    -0.15850000
opls_523-1    C    0.15904011    0.12257000    0.57339011    -0.12130000
opls_700-2    C    0.12604986    0.06082006    0.53041997    -0.00330000
opls_523-3    C    0.15658015    0.02986006    0.47576995    -0.12230000
opls_145-4    C    0.21853999    0.05994995    0.46132991    -0.15730000
opls_145-5    C    0.25108003    0.12169989    0.50332944    0.20200000
opls_531-6    C    0.06025991    0.02905992    0.53709053    0.36180000
opls_700-7    C    0.60440012    0.29589999    0.27748950    0.06900000
opls_700-8    C    0.53903008    0.25648022    0.31678955    0.07570000
opls_145-9    C    0.50606012    0.27549025    0.49212086    -0.15900000
opls_700-10    C    0.44472001    0.23872022    0.54457070    -0.11860000
opls_700-11    C    0.41621007    0.17977987    0.42569995    0.04330000
opls_145-12    C    0.44955996    0.16090003    0.25280915    -0.11680000
opls_145-13    C    0.50965016    0.19887005    0.19432105    -0.10990000
opls_142-14    C    0.35188002    0.13705989    0.45881941    0.07390000
opls_725-15    C    0.41285013    0.26260022    0.74353943    0.70070000
opls_145-16    C    0.62976995    0.35786026    0.27272982    -0.16680000
opls_145-17    C    0.84755973    0.06850980    0.55985068    -0.15850000
opls_523-18    C    0.87742998    0.03646980    0.57339011    -0.12130000
opls_700-19    C    0.93918014    0.06522994    0.53041997    -0.00330000
opls_523-20    C    0.97013990    0.12671996    0.47576995    -0.12240000
opls_145-21    C    0.94005003    0.15858992    0.46132991    -0.15730000
opls_145-22    C    0.87830002    0.12937989    0.50332944    0.20200000
opls_531-23    C    0.97093995    0.03119999    0.53709053    0.36180000
opls_700-24    C    0.70410005    0.30849998    0.27748950    0.06900000
opls_700-25    C    0.74351983    0.28254988    0.31678955    0.07570000
opls_145-26    C    0.72450997    0.23056997    0.49212086    -0.15900000
opls_700-27    C    0.76128014    0.20600009    0.54457070    -0.11860000
opls_700-28    C    0.82021985    0.23643004    0.42569995    0.04330000
opls_145-29    C    0.83910017    0.28866014    0.25280915    -0.11680000
opls_145-30    C    0.80112992    0.31077998    0.19432105    -0.10990000
opls_142-31    C    0.86294009    0.21481986    0.45881941    0.07390000
opls_725-32    C    0.73740026    0.15025014    0.74353943    0.70070000
opls_145-33    C    0.64214023    0.27191018    0.27272982    -0.16680000
opls_145-34    C    0.93148993    0.77904995    0.55985068    -0.15850000
opls_523-35    C    0.96352991    0.84096019    0.57339011    -0.12130000
opls_700-36    C    0.93476999    0.87395000    0.53041997    -0.00330000
opls_523-37    C    0.87327995    0.84341997    0.47576995    -0.12240000
opls_145-38    C    0.84140998    0.78146014    0.46132991    -0.15730000
opls_145-39    C    0.87061995    0.74892022    0.50332944    0.20200000
opls_531-40    C    0.96880014    0.93974009    0.53709053    0.36180000
opls_700-41    C    0.69149983    0.39560003    0.27748950    0.06900000
opls_700-42    C    0.71745009    0.46096990    0.31678955    0.07570000
opls_145-43    C    0.76943013    0.49394022    0.49212086    -0.15900000
opls_700-44    C    0.79400008    0.55528013    0.54457070    -0.11860000
opls_700-45    C    0.76357008    0.58379009    0.42569995    0.04330000
opls_145-46    C    0.71134009    0.55044028    0.25280915    -0.11680000
opls_145-47    C    0.68921993    0.49034997    0.19432105    -0.10990000
opls_142-48    C    0.78518027    0.64812025    0.45881941    0.07390000
opls_725-49    C    0.84975022    0.58715008    0.74353943    0.70070000
opls_145-50    C    0.72809004    0.37023000    0.27272982    -0.16680000
opls_520-51    N    0.03095986    0.05979983    0.53686888    -0.42740000
opls_750-52    N    0.31433004    0.15565014    0.48472935    -0.32740000
opls_520-53    N    0.94020024    0.97116016    0.53686888    -0.42740000
opls_750-54    N    0.84435029    0.15868025    0.48472935    -0.32740000
opls_520-55    N    0.02883990    0.96904001    0.53686888    -0.42740000
opls_750-56    N    0.84131990    0.68567006    0.48472935    -0.32730000
opls_726-57    F    0.45330017    0.31113998    0.91664022    -0.22610000
opls_726-58    F    0.37610006    0.22033986    0.95468969    -0.21800000
opls_726-59    F    0.37954011    0.27916995    0.56486001    -0.21750000
opls_726-60    F    0.68886009    0.14216011    0.91664022    -0.22620000
opls_726-61    F    0.77966009    0.15575995    0.95468969    -0.21800000
opls_726-62    F    0.72083002    0.10037001    0.56486001    -0.21750000
opls_726-63    F    0.85784012    0.54669991    0.91664022    -0.22610000
opls_726-64    F    0.84424023    0.62390018    0.95468969    -0.21800000
opls_726-65    F    0.89962987    0.62046004    0.56486001    -0.21750000
opls_146-66    H    0.24657997    0.20010016    0.59213952    0.12100000
opls_526-67    H    0.13691008    0.14766992    0.61706953    0.12720000
opls_526-68    H    0.13233006    0.98236001    0.43972935    0.12360000
opls_146-69    H    0.24026009    0.03481017    0.41349043    0.12560000
opls_146-70    H    0.52825010    0.31919991    0.59527065    0.13110000
opls_146-71    H    0.42837013    0.11675022    0.15355110    0.12440000
opls_146-72    H    0.53293018    0.18304024    0.04972002    0.12100000
opls_144-73    H    0.33687010    0.09035023    0.44016099    0.12280000
opls_146-74    H    0.60121019    0.37681007    0.27625992    0.12540000
opls_146-75    H    0.79989981    0.04647984    0.59213952    0.12100000
opls_526-76    H    0.85232979    0.98923986    0.61706953    0.12720000
opls_526-77    H    0.01763975    0.14996985    0.43972935    0.12750000
opls_146-78    H    0.96519007    0.20545012    0.41349043    0.12560000
opls_146-79    H    0.68079994    0.20905012    0.59527065    0.13110000
opls_146-80    H    0.88324988    0.31161998    0.15355110    0.12440000
opls_146-81    H    0.81696030    0.34989023    0.04972002    0.12240000
opls_144-82    H    0.90965003    0.24652022    0.44016099    0.12280000
opls_146-83    H    0.62319011    0.22439993    0.27625992    0.12540000
opls_146-84    H    0.95351983    0.75342000    0.59213952    0.12100000
opls_526-85    H    0.01076013    0.86309022    0.61706953    0.12720000
opls_526-86    H    0.85003019    0.86767015    0.43972935    0.12360000
opls_146-87    H    0.79455006    0.75974014    0.41349043    0.12560000
opls_146-88    H    0.79094996    0.47174997    0.59527065    0.13110000
opls_146-89    H    0.68838021    0.57163024    0.15355110    0.12440000
opls_146-90    H    0.65011013    0.46706997    0.04972002    0.12100000
opls_144-91    H    0.75348009    0.66312999    0.44016099    0.12280000
opls_146-92    H    0.77560008    0.39878999    0.27625992    0.12540000
