#======================================================================
# Crystal Data Generated By AuToFF
#----------------------------------------------------------------------

data_AuToFF_phase_1

_cell_length_a                         52.2000
_cell_length_b                         52.2000
_cell_length_c                         3.5300
_cell_angle_alpha                      90.00
_cell_angle_beta                       90.00
_cell_angle_gamma                      120.00
_symmetry_space_group_name_H-M_alt     'P 1'
_symmetry_space_group_IT_number        1

loop_
_space_group_symop_operation_xyz
   'x, y, z'

loop_
   _atom_site_label
   _atom_site_type_symbol
   _atom_site_fract_x
   _atom_site_fract_y
   _atom_site_fract_z
   _atom_site_charge
opls_144-0    H    0.13201008    0.37336000    0.00000000    0.07520000
opls_146-1    H    0.17116999    0.36803997    0.00000000    0.07200000
opls_146-2    H    0.21715990    0.36687996    0.00000000    0.11580000
opls_146-3    H    0.26686991    0.46259998    0.00000000    0.08860000
opls_146-4    H    0.22091008    0.46375004    0.00000000    0.06910000
opls_144-5    H    0.30579006    0.45760004    0.00000000    0.07440000
opls_146-6    H    0.29750998    0.38101995    0.00000000    0.11570000
opls_146-7    H    0.39214004    0.41641993    0.00000000    0.07110000
opls_146-8    H    0.35655999    0.47422994    0.00000000    0.08880000
opls_144-9    H    0.42566987    0.46628994    0.00000000    0.07250000
opls_146-10    H    0.29089993    0.34106997    0.00000000    0.12690000
opls_146-11    H    0.28342009    0.29147006    0.00000000    0.11660000
opls_146-12    H    0.32454000    0.28247003    0.00000000    0.06410000
opls_146-13    H    0.38568007    0.37679999    0.00000000    0.12040000
opls_146-14    H    0.35796999    0.27603999    0.00000000    0.12110000
opls_146-15    H    0.45100000    0.30948007    0.00000000    0.09270000
opls_146-16    H    0.41888996    0.37026996    0.00000000    0.07110000
opls_144-17    H    0.48607008    0.36047005    0.00000000    0.07440000
opls_146-18    H    0.96432007    0.46928995    0.00000000    0.09520000
opls_146-19    H    0.96522000    0.51634996    0.00000000    0.11340000
opls_146-20    H    0.86947999    0.46995003    0.00000000    0.09520000
opls_146-21    H    0.86854002    0.42289997    0.00000000    0.06910000
opls_144-22    H    0.62663990    0.75864991    0.00000000    0.07520000
opls_146-23    H    0.63196001    0.80312999    0.00000000    0.06770000
opls_146-24    H    0.63311998    0.85027982    0.00000000    0.11580000
opls_146-25    H    0.53739988    0.80426987    0.00000000    0.08860000
opls_146-26    H    0.53624985    0.75715986    0.00000000    0.06910000
opls_144-27    H    0.54239991    0.84818985    0.00000000    0.07440000
opls_146-28    H    0.61898003    0.91648994    0.00000000    0.11570000
opls_146-29    H    0.58357986    0.97571988    0.00000000    0.07120000
opls_146-30    H    0.52576990    0.88232983    0.00000000    0.08880000
opls_144-31    H    0.53370992    0.95937998    0.00000000    0.07240000
opls_146-32    H    0.65892985    0.94982981    0.00000000    0.12680000
opls_146-33    H    0.70852990    0.99194984    0.00000000    0.11660000
opls_146-34    H    0.71753003    0.04207003    0.00000000    0.06410000
opls_146-35    H    0.62319992    0.00887991    0.00000000    0.12050000
opls_146-36    H    0.72396001    0.08192998    0.00000000    0.12110000
opls_146-37    H    0.69051998    0.14152004    0.00000000    0.09270000
opls_146-38    H    0.62972991    0.04861997    0.00000000    0.07110000
opls_144-39    H    0.63953007    0.12560000    0.00000000    0.07440000
opls_146-40    H    0.53071004    0.49503003    0.00000000    0.09520000
opls_146-41    H    0.48364989    0.44886989    0.00000000    0.11340000
opls_146-42    H    0.53005000    0.39952989    0.00000000    0.09530000
opls_146-43    H    0.57710010    0.44564004    0.00000000    0.06910000
opls_144-44    H    0.24134991    0.86798987    0.00000000    0.07520000
opls_146-45    H    0.19687000    0.82883004    0.00000000    0.06770000
opls_146-46    H    0.14972000    0.78284000    0.00000000    0.11580000
opls_146-47    H    0.19572991    0.73312993    0.00000000    0.08860000
opls_146-48    H    0.24283996    0.77908988    0.00000000    0.06910000
opls_144-49    H    0.15180992    0.69420989    0.00000000    0.07440000
opls_146-50    H    0.08350988    0.70248988    0.00000000    0.11580000
opls_146-51    H    0.02427999    0.60785997    0.00000000    0.07110000
opls_146-52    H    0.11767000    0.64344001    0.00000000    0.08880000
opls_144-53    H    0.04061991    0.57432986    0.00000000    0.07240000
opls_146-54    H    0.05016992    0.70909999    0.00000000    0.12690000
opls_146-55    H    0.00804990    0.71657988    0.00000000    0.11660000
opls_146-56    H    0.95792997    0.67545994    0.00000000    0.06410000
opls_146-57    H    0.99111990    0.61431988    0.00000000    0.12050000
opls_146-58    H    0.91807000    0.64203003    0.00000000    0.12110000
opls_146-59    H    0.85848002    0.54899989    0.00000000    0.09270000
opls_146-60    H    0.95137983    0.58110985    0.00000000    0.07110000
opls_144-61    H    0.87440004    0.51392996    0.00000000    0.07440000
opls_146-62    H    0.50497009    0.03568002    0.00000000    0.09520000
opls_146-63    H    0.55113000    0.03477993    0.00000000    0.11350000
opls_146-64    H    0.60047000    0.13052008    0.00000000    0.09520000
opls_146-65    H    0.55436007    0.13145999    0.00000000    0.06910000
opls_144-66    H    0.86798992    0.62664000    0.00000000    0.07520000
opls_146-67    H    0.82883001    0.63196003    0.00000000    0.06770000
opls_146-68    H    0.78284010    0.63312004    0.00000000    0.12140000
opls_146-69    H    0.73313009    0.53740002    0.00000000    0.08860000
opls_146-70    H    0.77908992    0.53624996    0.00000000    0.06920000
opls_144-71    H    0.69420994    0.54239996    0.00000000    0.07440000
opls_146-72    H    0.70249002    0.61898005    0.00000000    0.11570000
opls_146-73    H    0.60785985    0.58357985    0.00000000    0.07110000
opls_146-74    H    0.64344001    0.52577006    0.00000000    0.08880000
opls_144-75    H    0.57432994    0.53371006    0.00000000    0.07240000
opls_146-76    H    0.70910007    0.65893003    0.00000000    0.12680000
opls_146-77    H    0.71657991    0.70852994    0.00000000    0.11670000
opls_146-78    H    0.67546000    0.71752997    0.00000000    0.06410000
opls_146-79    H    0.61431993    0.62320001    0.00000000    0.12050000
opls_146-80    H    0.64203001    0.72396001    0.00000000    0.12110000
opls_146-81    H    0.54900000    0.69051993    0.00000000    0.09270000
opls_146-82    H    0.58111004    0.62973004    0.00000000    0.07110000
opls_144-83    H    0.51392992    0.63952995    0.00000000    0.07440000
opls_146-84    H    0.03568012    0.53071005    0.00000000    0.09520000
opls_146-85    H    0.03478000    0.48365004    0.00000000    0.11340000
opls_146-86    H    0.13052001    0.53004997    0.00000000    0.09520000
opls_146-87    H    0.13145998    0.57710003    0.00000000    0.06910000
opls_144-88    H    0.37336010    0.24135009    0.00000000    0.07520000
opls_146-89    H    0.36803999    0.19687001    0.00000000    0.06770000
opls_146-90    H    0.36687990    0.14971996    0.00000000    0.12130000
opls_146-91    H    0.46260001    0.19572991    0.00000000    0.08860000
opls_146-92    H    0.46375004    0.24283992    0.00000000    0.06910000
opls_144-93    H    0.45759998    0.15180993    0.00000000    0.07440000
opls_146-94    H    0.38101997    0.08351006    0.00000000    0.11570000
opls_146-95    H    0.41642003    0.02427990    0.00000000    0.07110000
opls_146-96    H    0.47422999    0.11766995    0.00000000    0.08890000
opls_144-97    H    0.46629008    0.04062002    0.00000000    0.07240000
opls_146-98    H    0.34107004    0.05016996    0.00000000    0.12680000
opls_146-99    H    0.29146999    0.00804994    0.00000000    0.11660000
opls_146-100    H    0.28246997    0.95792997    0.00000000    0.06410000
opls_146-101    H    0.37679997    0.99111987    0.00000000    0.12040000
opls_146-102    H    0.27603999    0.91807002    0.00000000    0.12130000
opls_146-103    H    0.30948002    0.85847996    0.00000000    0.09270000
opls_146-104    H    0.37026998    0.95137981    0.00000000    0.07110000
opls_144-105    H    0.36046993    0.87440000    0.00000000    0.07520000
opls_146-106    H    0.46928996    0.50496997    0.00000000    0.09520000
opls_146-107    H    0.51635000    0.55112989    0.00000000    0.11340000
opls_146-108    H    0.46994989    0.60046989    0.00000000    0.09520000
opls_146-109    H    0.42289990    0.55435996    0.00000000    0.06910000
opls_144-110    H    0.75864997    0.13200991    0.00000000    0.07520000
opls_146-111    H    0.80313000    0.17116996    0.00000000    0.06770000
opls_146-112    H    0.85028000    0.21716000    0.00000000    0.11580000
opls_146-113    H    0.80427009    0.26687007    0.00000000    0.08860000
opls_146-114    H    0.75715993    0.22090990    0.00000000    0.06910000
opls_144-115    H    0.84818997    0.30578989    0.00000000    0.07440000
opls_146-116    H    0.91649001    0.29750990    0.00000000    0.11570000
opls_146-117    H    0.97572001    0.39214003    0.00000000    0.07110000
opls_146-118    H    0.88233000    0.35655999    0.00000000    0.08880000
opls_144-119    H    0.95937998    0.42566992    0.00000000    0.07240000
opls_146-120    H    0.94983008    0.29090001    0.00000000    0.12690000
opls_146-121    H    0.99194999    0.28341990    0.00000000    0.11660000
opls_146-122    H    0.04207003    0.32454006    0.00000000    0.06410000
opls_146-123    H    0.00887999    0.38567990    0.00000000    0.12050000
opls_146-124    H    0.08193000    0.35796997    0.00000000    0.12110000
opls_146-125    H    0.14151987    0.45099989    0.00000000    0.09270000
opls_146-126    H    0.04861987    0.41888993    0.00000000    0.07110000
opls_144-127    H    0.12559996    0.48607004    0.00000000    0.07440000
opls_146-128    H    0.49502991    0.96431998    0.00000000    0.09520000
opls_146-129    H    0.44886989    0.96521985    0.00000000    0.11350000
opls_146-130    H    0.39953000    0.86947992    0.00000000    0.09520000
opls_146-131    H    0.44563993    0.86854001    0.00000000    0.06910000
opls_145-132    C    0.99570001    0.30610003    0.00000000    -0.08950000
opls_145-133    C    0.02417994    0.32974993    0.00000000    -0.11580000
opls_700-134    C    0.03015002    0.35952992    0.00000000    0.07240000
opls_145-135    C    0.00512001    0.36314002    0.00000000    -0.12930000
opls_700-136    C    0.06042997    0.38445994    0.00000000    0.07250000
opls_145-137    C    0.08538989    0.38044990    0.00000000    -0.14900000
opls_700-138    C    0.11448002    0.40358992    0.00000000    0.01650000
opls_145-139    C    0.11876989    0.43228998    0.00000000    -0.15750000
opls_700-140    C    0.09547986    0.43830991    0.00000000    0.07450000
opls_145-141    C    0.06687992    0.41424989    0.00000000    -0.15250000
opls_145-142    C    0.91618998    0.44188992    0.00000000    0.21950000
opls_145-143    C    0.94311004    0.46893004    0.00000000    -0.16150000
opls_145-144    C    0.94369992    0.49577992    0.00000000    -0.15700000
opls_145-145    C    0.91756985    0.49728988    0.00000000    0.21750000
opls_145-146    C    0.89067000    0.47026989    0.00000000    -0.15700000
opls_145-147    C    0.89007992    0.44342996    0.00000000    -0.15810000
opls_142-148    C    0.89790998    0.53110004    0.00000000    0.07770000
opls_700-149    C    0.02439001    0.66039995    0.00000000    0.07240000
opls_145-150    C    0.02812996    0.68936988    0.00000000    -0.11390000
opls_700-151    C    0.04982994    0.65586985    0.00000000    0.07250000
opls_145-152    C    0.04653988    0.62723991    0.00000000    -0.15210000
opls_700-153    C    0.07020007    0.62213999    0.00000000    0.07720000
opls_145-154    C    0.09863999    0.64697998    0.00000000    -0.15090000
opls_700-155    C    0.10401987    0.67608994    0.00000000    0.05490000
opls_145-156    C    0.07942998    0.67978984    0.00000000    -0.15950000
opls_142-157    C    0.06405992    0.59169992    0.00000000    0.07790000
opls_142-158    C    0.13453004    0.70039992    0.00000000    0.07870000
opls_145-159    C    0.16844011    0.75393002    0.00000000    0.22000000
opls_145-160    C    0.19545991    0.75401983    0.00000000    -0.16150000
opls_145-161    C    0.22237993    0.78022998    0.00000000    -0.15940000
opls_145-162    C    0.22413997    0.80798991    0.00000000    0.22140000
opls_145-163    C    0.19712993    0.80792001    0.00000000    -0.16270000
opls_145-164    C    0.17018999    0.78169990    0.00000000    -0.16070000
opls_142-165    C    0.25842992    0.86152996    0.00000000    0.07870000
opls_145-166    C    0.69389997    0.68959993    0.00000000    -0.08940000
opls_145-167    C    0.67025005    0.69442999    0.00000000    -0.11580000
opls_700-168    C    0.64046993    0.67061993    0.00000000    0.07240000
opls_145-169    C    0.63685994    0.64198004    0.00000000    -0.12930000
opls_700-170    C    0.61554000    0.67597004    0.00000000    0.07250000
opls_145-171    C    0.61955006    0.70493997    0.00000000    -0.14900000
opls_700-172    C    0.59640994    0.71089000    0.00000000    0.01650000
opls_145-173    C    0.56770994    0.68648003    0.00000000    -0.15740000
opls_700-174    C    0.56168992    0.65716988    0.00000000    0.07450000
opls_145-175    C    0.58575008    0.65263005    0.00000000    -0.15250000
opls_145-176    C    0.55810999    0.47430006    0.00000000    0.21950000
opls_145-177    C    0.53107005    0.47417995    0.00000000    -0.16150000
opls_145-178    C    0.50421997    0.44792002    0.00000000    -0.15700000
opls_145-179    C    0.50270992    0.42027999    0.00000000    0.21750000
opls_145-180    C    0.52973002    0.42039988    0.00000000    -0.15700000
opls_145-181    C    0.55656995    0.44664985    0.00000000    -0.15810000
opls_142-182    C    0.46890005    0.36681006    0.00000000    0.07770000
opls_700-183    C    0.33959993    0.36398989    0.00000000    0.07240000
opls_145-184    C    0.31062995    0.33875991    0.00000000    -0.11390000
opls_700-185    C    0.34412995    0.39395990    0.00000000    0.07250000
opls_145-186    C    0.37275998    0.41930004    0.00000000    -0.15200000
opls_700-187    C    0.37786010    0.44806005    0.00000000    0.07720000
opls_145-188    C    0.35302002    0.45165997    0.00000000    -0.15090000
opls_700-189    C    0.32391001    0.42792999    0.00000000    0.05490000
opls_145-190    C    0.32021006    0.39964005    0.00000000    -0.15530000
opls_142-191    C    0.40829985    0.47235986    0.00000000    0.07810000
opls_142-192    C    0.29960005    0.43412998    0.00000000    0.07880000
opls_145-193    C    0.24606996    0.41451003    0.00000000    0.22000000
opls_145-194    C    0.24597996    0.44143999    0.00000000    -0.16150000
opls_145-195    C    0.21977005    0.44215006    0.00000000    -0.15940000
opls_145-196    C    0.19201009    0.41615006    0.00000000    0.22150000
opls_145-197    C    0.19207987    0.38920992    0.00000000    -0.16280000
opls_145-198    C    0.21829993    0.38848989    0.00000000    -0.16070000
opls_142-199    C    0.13846990    0.39689996    0.00000000    0.07870000
opls_145-200    C    0.31040002    0.00430004    0.00000000    -0.08940000
opls_145-201    C    0.30556989    0.97581986    0.00000000    -0.11580000
opls_700-202    C    0.32937995    0.96984993    0.00000000    0.07240000
opls_145-203    C    0.35802005    0.99487994    0.00000000    -0.12930000
opls_700-204    C    0.32403003    0.93957001    0.00000000    0.07250000
opls_145-205    C    0.29505993    0.91460990    0.00000000    -0.14900000
opls_700-206    C    0.28910993    0.88551986    0.00000000    0.01650000
opls_145-207    C    0.31351998    0.88122999    0.00000000    -0.15750000
opls_700-208    C    0.34282992    0.90451999    0.00000000    0.07450000
opls_145-209    C    0.34736988    0.93311984    0.00000000    -0.15250000
opls_145-210    C    0.52570003    0.08381002    0.00000000    0.21950000
opls_145-211    C    0.52582010    0.05689001    0.00000000    -0.16150000
opls_145-212    C    0.55208010    0.05630005    0.00000000    -0.15700000
opls_145-213    C    0.57971993    0.08242991    0.00000000    0.21750000
opls_145-214    C    0.57960006    0.10933000    0.00000000    -0.15700000
opls_145-215    C    0.55335002    0.10991996    0.00000000    -0.15820000
opls_142-216    C    0.63318997    0.10208990    0.00000000    0.07770000
opls_700-217    C    0.63600995    0.97560994    0.00000000    0.07240000
opls_145-218    C    0.66123998    0.97186999    0.00000000    -0.11390000
opls_700-219    C    0.60603989    0.95016981    0.00000000    0.07250000
opls_145-220    C    0.58069983    0.95345982    0.00000000    -0.15200000
opls_700-221    C    0.55194002    0.92979996    0.00000000    0.07720000
opls_145-222    C    0.54833987    0.90135983    0.00000000    -0.15080000
opls_700-223    C    0.57207000    0.89597985    0.00000000    0.05490000
opls_145-224    C    0.60035985    0.92056988    0.00000000    -0.15530000
opls_142-225    C    0.52763993    0.93594001    0.00000000    0.07790000
opls_142-226    C    0.56587000    0.86546988    0.00000000    0.07870000
opls_145-227    C    0.58548994    0.83155995    0.00000000    0.22000000
opls_145-228    C    0.55856002    0.80453996    0.00000000    -0.16140000
opls_145-229    C    0.55785002    0.77761996    0.00000000    -0.15930000
opls_145-230    C    0.58384994    0.77586004    0.00000000    0.22140000
opls_145-231    C    0.61078991    0.80286985    0.00000000    -0.16280000
opls_145-232    C    0.61150997    0.82980999    0.00000000    -0.16080000
opls_142-233    C    0.60309987    0.74156986    0.00000000    0.07870000
opls_145-234    C    0.00429999    0.69389997    0.00000000    -0.08950000
opls_145-235    C    0.97581994    0.67024985    0.00000000    -0.11580000
opls_700-236    C    0.96984987    0.64046986    0.00000000    0.07260000
opls_145-237    C    0.99487999    0.63685998    0.00000000    -0.12920000
opls_700-238    C    0.93957003    0.61554006    0.00000000    0.07250000
opls_145-239    C    0.91460999    0.61954987    0.00000000    -0.14900000
opls_700-240    C    0.88551987    0.59640985    0.00000000    0.01650000
opls_145-241    C    0.88122991    0.56771002    0.00000000    -0.15750000
opls_700-242    C    0.90452003    0.56168987    0.00000000    0.07450000
opls_145-243    C    0.93311996    0.58574989    0.00000000    -0.15250000
opls_145-244    C    0.08380991    0.55810986    0.00000000    0.21950000
opls_145-245    C    0.05688996    0.53106996    0.00000000    -0.16150000
opls_145-246    C    0.05629997    0.50421985    0.00000000    -0.15700000
opls_145-247    C    0.08242985    0.50270990    0.00000000    0.21760000
opls_145-248    C    0.10932989    0.52972989    0.00000000    -0.15700000
opls_145-249    C    0.10992008    0.55657004    0.00000000    -0.15820000
opls_142-250    C    0.10209002    0.46889996    0.00000000    0.07780000
opls_700-251    C    0.97560999    0.33960005    0.00000000    0.07240000
opls_145-252    C    0.97186993    0.31062990    0.00000000    -0.11390000
opls_700-253    C    0.95016995    0.34412993    0.00000000    0.07270000
opls_145-254    C    0.95346001    0.37275986    0.00000000    -0.15210000
opls_700-255    C    0.92979993    0.37786001    0.00000000    0.07720000
opls_145-256    C    0.90136001    0.35302002    0.00000000    -0.15090000
opls_700-257    C    0.89598013    0.32391006    0.00000000    0.05490000
opls_145-258    C    0.92056991    0.32020993    0.00000000    -0.15530000
opls_142-259    C    0.93593997    0.40829986    0.00000000    0.07790000
opls_142-260    C    0.86546996    0.29960008    0.00000000    0.07870000
opls_145-261    C    0.83156009    0.24606998    0.00000000    0.22010000
opls_145-262    C    0.80453998    0.24597995    0.00000000    -0.16150000
opls_145-263    C    0.77762007    0.21977002    0.00000000    -0.15930000
opls_145-264    C    0.77586003    0.19201009    0.00000000    0.22140000
opls_145-265    C    0.80287007    0.19207999    0.00000000    -0.16270000
opls_145-266    C    0.82980990    0.21829988    0.00000000    -0.16070000
opls_142-267    C    0.74157008    0.13847004    0.00000000    0.07870000
opls_145-268    C    0.30610003    0.31040007    0.00000000    -0.08950000
opls_145-269    C    0.32974995    0.30557001    0.00000000    -0.11580000
opls_700-270    C    0.35953007    0.32938007    0.00000000    0.07250000
opls_145-271    C    0.36314006    0.35801996    0.00000000    -0.12930000
opls_700-272    C    0.38446000    0.32402996    0.00000000    0.07260000
opls_145-273    C    0.38044994    0.29506003    0.00000000    -0.14900000
opls_700-274    C    0.40359006    0.28911000    0.00000000    0.01650000
opls_145-275    C    0.43229006    0.31351997    0.00000000    -0.15750000
opls_700-276    C    0.43830997    0.34282990    0.00000000    0.07450000
opls_145-277    C    0.41424992    0.34736995    0.00000000    -0.15240000
opls_145-278    C    0.44189001    0.52569994    0.00000000    0.21950000
opls_145-279    C    0.46892995    0.52582005    0.00000000    -0.16150000
opls_145-280    C    0.49578003    0.55207998    0.00000000    -0.15700000
opls_145-281    C    0.49729008    0.57972001    0.00000000    0.21760000
opls_145-282    C    0.47026987    0.57959989    0.00000000    -0.15700000
opls_145-283    C    0.44342994    0.55334993    0.00000000    -0.15820000
opls_142-284    C    0.53109995    0.63318994    0.00000000    0.07770000
opls_700-285    C    0.66039996    0.63600989    0.00000000    0.07240000
opls_145-286    C    0.68936993    0.66123987    0.00000000    -0.11390000
opls_700-287    C    0.65586994    0.60603988    0.00000000    0.07260000
opls_145-288    C    0.62724002    0.58069996    0.00000000    -0.15210000
opls_700-289    C    0.62213990    0.55193995    0.00000000    0.07720000
opls_145-290    C    0.64697998    0.54834003    0.00000000    -0.15090000
opls_700-291    C    0.67608999    0.57207001    0.00000000    0.05490000
opls_145-292    C    0.67978994    0.60035995    0.00000000    -0.15530000
opls_142-293    C    0.59170004    0.52763992    0.00000000    0.07790000
opls_142-294    C    0.70039995    0.56587002    0.00000000    0.07870000
opls_145-295    C    0.75393004    0.58548997    0.00000000    0.22000000
opls_145-296    C    0.75402004    0.55856001    0.00000000    -0.16150000
opls_145-297    C    0.78022995    0.55784994    0.00000000    -0.15940000
opls_145-298    C    0.80798991    0.58384994    0.00000000    0.22140000
opls_145-299    C    0.80792002    0.61078986    0.00000000    -0.16280000
opls_145-300    C    0.78169996    0.61150989    0.00000000    -0.16080000
opls_142-301    C    0.86153010    0.60310004    0.00000000    0.07870000
opls_145-302    C    0.68959998    0.99569996    0.00000000    -0.08950000
opls_145-303    C    0.69443000    0.02417991    0.00000000    -0.11580000
opls_700-304    C    0.67062005    0.03015007    0.00000000    0.07240000
opls_145-305    C    0.64197995    0.00512006    0.00000000    -0.12930000
opls_700-306    C    0.67596997    0.06042999    0.00000000    0.07250000
opls_145-307    C    0.70494007    0.08539010    0.00000000    -0.14900000
opls_700-308    C    0.71088996    0.11447992    0.00000000    0.01650000
opls_145-309    C    0.68648002    0.11877001    0.00000000    -0.15740000
opls_700-310    C    0.65717008    0.09548001    0.00000000    0.07460000
opls_145-311    C    0.65263001    0.06687994    0.00000000    -0.15240000
opls_145-312    C    0.47429997    0.91618998    0.00000000    0.21950000
opls_145-313    C    0.47418009    0.94310999    0.00000000    -0.16150000
opls_145-314    C    0.44791990    0.94369995    0.00000000    -0.15690000
opls_145-315    C    0.42027996    0.91756987    0.00000000    0.21750000
opls_145-316    C    0.42039994    0.89067000    0.00000000    -0.15690000
opls_145-317    C    0.44664987    0.89007982    0.00000000    -0.15820000
opls_142-318    C    0.36680992    0.89790988    0.00000000    0.07770000
opls_700-319    C    0.36399005    0.02439006    0.00000000    0.07240000
opls_145-320    C    0.33876002    0.02813001    0.00000000    -0.11390000
opls_700-321    C    0.39396000    0.04982997    0.00000000    0.07250000
opls_145-322    C    0.41930006    0.04653996    0.00000000    -0.15210000
opls_700-323    C    0.44805998    0.07020004    0.00000000    0.07720000
opls_145-324    C    0.45166001    0.09863995    0.00000000    -0.15080000
opls_700-325    C    0.42792989    0.10401993    0.00000000    0.05490000
opls_145-326    C    0.39963985    0.07942990    0.00000000    -0.15530000
opls_142-327    C    0.47236007    0.06405999    0.00000000    0.07790000
opls_142-328    C    0.43412989    0.13452990    0.00000000    0.07870000
opls_145-329    C    0.41451006    0.16844005    0.00000000    0.22010000
opls_145-330    C    0.44143998    0.19546004    0.00000000    -0.16150000
opls_145-331    C    0.44214998    0.22238004    0.00000000    -0.15940000
opls_145-332    C    0.41615006    0.22413996    0.00000000    0.22140000
opls_145-333    C    0.38920998    0.19712993    0.00000000    -0.16280000
opls_145-334    C    0.38849003    0.17019001    0.00000000    -0.16080000
opls_142-335    C    0.39690002    0.25842992    0.00000000    0.07870000
opls_750-336    N    0.16592988    0.41811990    0.00000000    -0.26410000
opls_750-337    N    0.27223003    0.41267998    0.00000000    -0.26540000
opls_750-338    N    0.91439001    0.41398002    0.00000000    -0.26650000
opls_750-339    N    0.91930011    0.52514006    0.00000000    -0.26620000
opls_750-340    N    0.58187985    0.74780988    0.00000000    -0.26410000
opls_750-341    N    0.58731999    0.85954994    0.00000000    -0.26530000
opls_750-342    N    0.58601995    0.50041001    0.00000000    -0.26660000
opls_750-343    N    0.47486001    0.39415987    0.00000000    -0.26620000
opls_750-344    N    0.25218998    0.83406999    0.00000000    -0.26410000
opls_750-345    N    0.14044987    0.72776986    0.00000000    -0.26540000
opls_750-346    N    0.49959005    0.08560998    0.00000000    -0.26660000
opls_750-347    N    0.60584007    0.08070007    0.00000000    -0.26610000
opls_750-348    N    0.83407001    0.58187987    0.00000000    -0.26410000
opls_750-349    N    0.72776997    0.58732002    0.00000000    -0.26540000
opls_750-350    N    0.08560999    0.58601998    0.00000000    -0.26640000
opls_750-351    N    0.08069989    0.47485994    0.00000000    -0.26620000
opls_750-352    N    0.41812004    0.25218989    0.00000000    -0.26410000
opls_750-353    N    0.41268001    0.14045006    0.00000000    -0.26530000
opls_750-354    N    0.41398005    0.49958999    0.00000000    -0.26660000
opls_750-355    N    0.52513988    0.60583991    0.00000000    -0.26620000
opls_750-356    N    0.74781002    0.16593001    0.00000000    -0.26400000
opls_750-357    N    0.85955002    0.27222992    0.00000000    -0.26540000
opls_750-358    N    0.50040995    0.91439002    0.00000000    -0.26650000
opls_750-359    N    0.39415993    0.91929993    0.00000000    -0.26620000
