#======================================================================
# Crystal Data Generated By AuToFF
#----------------------------------------------------------------------

data_AuToFF_phase_1

_cell_length_a                         45.7888
_cell_length_b                         45.7888
_cell_length_c                         3.4580
_cell_angle_alpha                      90.00
_cell_angle_beta                       90.00
_cell_angle_gamma                      120.00
_symmetry_space_group_name_H-M_alt     'P 1'
_symmetry_space_group_IT_number        1

loop_
_space_group_symop_operation_xyz
   'x, y, z'

loop_
   _atom_site_label
   _atom_site_type_symbol
   _atom_site_fract_x
   _atom_site_fract_y
   _atom_site_fract_z
   _atom_site_charge
opls_145-0    C    0.31119002    0.67976001    0.50000000    -0.05680000
opls_700-1    C    0.29793008    0.64435019    0.50000000    0.13510000
opls_142-2    C    0.35924000    0.73894003    0.50000000    -0.08160000
opls_142-3    C    0.36954013    0.60761013    0.50000000    -0.08190000
opls_700-4    C    0.39359004    0.59477015    0.50000000    0.13060000
opls_145-5    C    0.44046999    0.82112010    0.50000000    -0.08220000
opls_145-6    C    0.45354997    0.85638012    0.50000000    -0.10570000
opls_145-7    C    0.43140003    0.86970000    0.50000000    0.23060000
opls_145-8    C    0.39614996    0.84735007    0.50000000    -0.10640000
opls_145-9    C    0.38308004    0.81210014    0.50000000    -0.08190000
opls_142-10    C    0.47619996    0.92819006    0.50000000    0.03130000
opls_700-11    C    0.48805011    0.96482017    0.50000000    0.06470000
opls_145-12    C    0.52310018    0.98802020    0.50000000    -0.08200000
opls_145-13    C    0.53505013    0.02309008    0.50000000    -0.08160000
opls_145-14    C    0.32023991    0.63143002    0.50000000    -0.05680000
opls_700-15    C    0.35564988    0.65357997    0.50000000    0.13510000
opls_142-16    C    0.26106008    0.62030006    0.50000000    -0.08160000
opls_142-17    C    0.39239006    0.76192999    0.50000000    -0.08190000
opls_700-18    C    0.40523003    0.79882010    0.50000000    0.13060000
opls_145-19    C    0.17887997    0.61935010    0.50000000    -0.08220000
opls_145-20    C    0.14362010    0.59717014    0.50000000    -0.10570000
opls_145-21    C    0.13030011    0.56170005    0.50000000    0.23060000
opls_145-22    C    0.15264995    0.54880005    0.50000000    -0.10640000
opls_145-23    C    0.18789999    0.57098002    0.50000000    -0.08190000
opls_142-24    C    0.07180991    0.54800997    0.50000000    0.03130000
opls_700-25    C    0.03517995    0.52323004    0.50000000    0.06470000
opls_145-26    C    0.01197989    0.53507996    0.50000000    -0.08200000
opls_145-27    C    0.97691007    0.51196013    0.50000000    -0.08160000
opls_145-28    C    0.36857007    0.68880998    0.50000000    -0.05680000
opls_700-29    C    0.34641994    0.70207009    0.50000000    0.13510000
opls_142-30    C    0.37970004    0.64076016    0.50000000    -0.08160000
opls_142-31    C    0.23807015    0.63046013    0.50000000    -0.08190000
opls_700-32    C    0.20118005    0.60641000    0.50000000    0.13060000
opls_145-33    C    0.38064996    0.55953005    0.50000000    -0.08220000
opls_145-34    C    0.40283005    0.54644999    0.50000000    -0.10570000
opls_145-35    C    0.43830008    0.56859994    0.50000000    0.23060000
opls_145-36    C    0.45120000    0.60385013    0.50000000    -0.10640000
opls_145-37    C    0.42902010    0.61692010    0.50000000    -0.08190000
opls_142-38    C    0.45198992    0.52379996    0.50000000    0.03130000
opls_700-39    C    0.47677006    0.51195004    0.50000000    0.06470000
opls_145-40    C    0.46492005    0.47690009    0.50000000    -0.08200000
opls_145-41    C    0.48803992    0.46495005    0.50000000    -0.08160000
opls_145-42    C    0.68880998    0.32023999    0.50000000    -0.05680000
opls_700-43    C    0.70207004    0.35565006    0.50000000    0.13510000
opls_142-44    C    0.64076000    0.26105997    0.50000000    -0.08160000
opls_142-45    C    0.63045999    0.39239012    0.50000000    -0.08190000
opls_700-46    C    0.60641009    0.40523011    0.50000000    0.13060000
opls_145-47    C    0.55953001    0.17887990    0.50000000    -0.08220000
opls_145-48    C    0.54645015    0.14362013    0.50000000    -0.10570000
opls_145-49    C    0.56859997    0.13030000    0.50000000    0.23070000
opls_145-50    C    0.60385004    0.15264993    0.50000000    -0.10640000
opls_145-51    C    0.61692008    0.18790011    0.50000000    -0.08190000
opls_142-52    C    0.52380004    0.07180994    0.50000000    0.03130000
opls_700-53    C    0.51195001    0.03518008    0.50000000    0.06470000
opls_145-54    C    0.47689994    0.01198005    0.50000000    -0.08190000
opls_145-55    C    0.46494999    0.97691017    0.50000000    -0.08160000
opls_145-56    C    0.67976009    0.36856998    0.50000000    -0.05670000
opls_700-57    C    0.64435012    0.34642003    0.50000000    0.13510000
opls_142-58    C    0.73893992    0.37969994    0.50000000    -0.08160000
opls_142-59    C    0.60760994    0.23807001    0.50000000    -0.08190000
opls_700-60    C    0.59476997    0.20117990    0.50000000    0.13060000
opls_145-61    C    0.82112016    0.38065015    0.50000000    -0.08220000
opls_145-62    C    0.85638003    0.40283011    0.50000000    -0.10570000
opls_145-63    C    0.86969989    0.43829995    0.50000000    0.23060000
opls_145-64    C    0.84735005    0.45119995    0.50000000    -0.10640000
opls_145-65    C    0.81210001    0.42901998    0.50000000    -0.08190000
opls_142-66    C    0.92819009    0.45199003    0.50000000    0.03130000
opls_700-67    C    0.96482005    0.47676996    0.50000000    0.06480000
opls_145-68    C    0.98802011    0.46492004    0.50000000    -0.08200000
opls_145-69    C    0.02309005    0.48804012    0.50000000    -0.08160000
opls_145-70    C    0.63142993    0.31119002    0.50000000    -0.05660000
opls_700-71    C    0.65358006    0.29792991    0.50000000    0.13510000
opls_142-72    C    0.62030008    0.35924009    0.50000000    -0.08160000
opls_142-73    C    0.76192998    0.36954012    0.50000000    -0.08190000
opls_700-74    C    0.79881995    0.39359000    0.50000000    0.13060000
opls_145-75    C    0.61935004    0.44046995    0.50000000    -0.08220000
opls_145-76    C    0.59716995    0.45355001    0.50000000    -0.10570000
opls_145-77    C    0.56169992    0.43140006    0.50000000    0.23070000
opls_145-78    C    0.54880013    0.39615012    0.50000000    -0.10640000
opls_145-79    C    0.57098003    0.38308015    0.50000000    -0.08190000
opls_142-80    C    0.54801008    0.47620004    0.50000000    0.03130000
opls_700-81    C    0.52322994    0.48804996    0.50000000    0.06470000
opls_145-82    C    0.53508007    0.52310017    0.50000000    -0.08190000
opls_145-83    C    0.51196008    0.53504995    0.50000000    -0.08160000
opls_750-84    N    0.44398008    0.90567016    0.50000000    -0.27420000
opls_750-85    N    0.09433000    0.53831013    0.50000000    -0.27420000
opls_750-86    N    0.46169005    0.55601996    0.50000000    -0.27410000
opls_750-87    N    0.55602005    0.09433009    0.50000000    -0.27420000
opls_750-88    N    0.90567013    0.46169012    0.50000000    -0.27420000
opls_750-89    N    0.53830995    0.44398004    0.50000000    -0.27420000
opls_146-90    H    0.29319011    0.69054018    0.50000000    0.04560000
opls_144-91    H    0.34056011    0.74890012    0.50000000    0.04570000
opls_144-92    H    0.34115994    0.58791994    0.50000000    0.04560000
opls_146-93    H    0.45866014    0.81057016    0.50000000    0.04560000
opls_146-94    H    0.48232003    0.87446998    0.50000000    0.04560000
opls_146-95    H    0.37792995    0.85787000    0.50000000    0.04560000
opls_146-96    H    0.35432001    0.79400019    0.50000000    0.04560000
opls_144-97    H    0.49601005    0.91964999    0.50000000    0.03140000
opls_146-98    H    0.54202010    0.97836021    0.50000000    0.04560000
opls_146-99    H    0.56365009    0.04194001    0.50000000    0.04560000
opls_146-100    H    0.30945996    0.60265001    0.50000000    0.04560000
opls_144-101    H    0.25110007    0.59166001    0.50000000    0.04560000
opls_144-102    H    0.41208005    0.75324013    0.50000000    0.04560000
opls_146-103    H    0.18942999    0.64809002    0.50000000    0.04560000
opls_146-104    H    0.12553004    0.60784995    0.50000000    0.04560000
opls_146-105    H    0.14213006    0.52006014    0.50000000    0.04560000
opls_146-106    H    0.20600001    0.56032013    0.50000000    0.04560000
opls_144-107    H    0.08034993    0.57636002    0.50000000    0.03140000
opls_146-108    H    0.02163995    0.56366000    0.50000000    0.04560000
opls_146-109    H    0.95806007    0.52171015    0.50000000    0.04560000
opls_146-110    H    0.39735006    0.70681006    0.50000000    0.04560000
opls_144-111    H    0.40834016    0.65944012    0.50000000    0.04560000
opls_144-112    H    0.24676014    0.65884019    0.50000000    0.04560000
opls_146-113    H    0.35190999    0.54134007    0.50000000    0.04560000
opls_146-114    H    0.39214993    0.51768007    0.50000000    0.04560000
opls_146-115    H    0.47994012    0.62207011    0.50000000    0.04560000
opls_146-116    H    0.43968002    0.64568019    0.50000000    0.04560000
opls_144-117    H    0.42364002    0.50398999    0.50000000    0.03140000
opls_146-118    H    0.43634008    0.45798005    0.50000000    0.04560000
opls_146-119    H    0.47828996    0.43635009    0.50000000    0.04570000
opls_146-120    H    0.70681002    0.30946007    0.50000000    0.04560000
opls_144-121    H    0.65944001    0.25110013    0.50000000    0.04560000
opls_144-122    H    0.65884006    0.41208006    0.50000000    0.04560000
opls_146-123    H    0.54133998    0.18943009    0.50000000    0.04560000
opls_146-124    H    0.51767997    0.12553002    0.50000000    0.04560000
opls_146-125    H    0.62207005    0.14213000    0.50000000    0.04560000
opls_146-126    H    0.64568012    0.20600006    0.50000000    0.04560000
opls_144-127    H    0.50398995    0.08035001    0.50000000    0.03140000
opls_146-128    H    0.45798003    0.02164005    0.50000000    0.04560000
opls_146-129    H    0.43634991    0.95805999    0.50000000    0.04560000
opls_146-130    H    0.69054004    0.39734999    0.50000000    0.04560000
opls_144-131    H    0.74889993    0.40833999    0.50000000    0.04560000
opls_144-132    H    0.58792008    0.24676012    0.50000000    0.04560000
opls_146-133    H    0.81057001    0.35190998    0.50000000    0.04560000
opls_146-134    H    0.87446996    0.39215005    0.50000000    0.04560000
opls_146-135    H    0.85787007    0.47994011    0.50000000    0.04560000
opls_146-136    H    0.79400012    0.43968013    0.50000000    0.04560000
opls_144-137    H    0.91965007    0.42363998    0.50000000    0.03140000
opls_146-138    H    0.97836005    0.43634000    0.50000000    0.04560000
opls_146-139    H    0.04194006    0.47829010    0.50000000    0.04570000
opls_146-140    H    0.60264994    0.29318994    0.50000000    0.04560000
opls_144-141    H    0.59165997    0.34056013    0.50000000    0.04560000
opls_144-142    H    0.75323999    0.34116007    0.50000000    0.04560000
opls_146-143    H    0.64809001    0.45865993    0.50000000    0.04560000
opls_146-144    H    0.60785007    0.48231993    0.50000000    0.04560000
opls_146-145    H    0.52006001    0.37793014    0.50000000    0.04560000
opls_146-146    H    0.56032011    0.35432007    0.50000000    0.04560000
opls_144-147    H    0.57635998    0.49601001    0.50000000    0.03140000
opls_146-148    H    0.56365992    0.54201995    0.50000000    0.04560000
opls_146-149    H    0.52171016    0.56365016    0.50000000    0.04560000
