#======================================================================
# Crystal Data Generated By AuToFF
#----------------------------------------------------------------------

data_AuToFF_phase_1

_cell_length_a                         20.4900
_cell_length_b                         20.4900
_cell_length_c                         32.2000
_cell_angle_alpha                      90.00
_cell_angle_beta                       90.00
_cell_angle_gamma                      90.00
_symmetry_space_group_name_H-M_alt     'P 1'
_symmetry_space_group_IT_number        1

loop_
_space_group_symop_operation_xyz
   'x, y, z'

loop_
   _atom_site_label
   _atom_site_type_symbol
   _atom_site_fract_x
   _atom_site_fract_y
   _atom_site_fract_z
   _atom_site_charge
opls_234-0    C    0.34724988    0.69667984    0.30103012    0.46690000
opls_700-1    C    0.29430991    0.71638995    0.27374006    -0.06000000
opls_234-2    C    0.84724988    0.19667984    0.80103012    0.46690000
opls_700-3    C    0.79430991    0.21638995    0.77374006    -0.06000000
opls_234-4    C    0.15275012    0.30332016    0.80103012    0.46690000
opls_700-5    C    0.20569009    0.28361005    0.77374006    -0.06000000
opls_234-6    C    0.65275012    0.80332016    0.30103012    0.46690000
opls_700-7    C    0.70569009    0.78361005    0.27374006    -0.06000000
opls_234-8    C    0.55332016    0.09724988    0.55103012    0.46690000
opls_700-9    C    0.53361005    0.04430991    0.52374006    -0.06000000
opls_234-10    C    0.05332016    0.59724988    0.05103012    0.46690000
opls_700-11    C    0.03361005    0.54430991    0.02374006    -0.06000000
opls_234-12    C    0.94667984    0.90275012    0.05103012    0.46690000
opls_700-13    C    0.96638995    0.95569009    0.02374006    -0.06000000
opls_234-14    C    0.44667984    0.40275012    0.55103012    0.46680000
opls_700-15    C    0.46638995    0.45569009    0.52374006    -0.06000000
opls_234-16    C    0.15275012    0.69667984    0.19896988    0.46680000
opls_700-17    C    0.20569009    0.71638995    0.22625994    -0.06000000
opls_234-18    C    0.65275012    0.19667984    0.69896988    0.46690000
opls_700-19    C    0.70569009    0.21638995    0.72625994    -0.06000000
opls_234-20    C    0.34724988    0.30332016    0.69896988    0.46690000
opls_700-21    C    0.29430991    0.28361005    0.72625994    -0.06000000
opls_234-22    C    0.84724988    0.80332016    0.19896988    0.46690000
opls_700-23    C    0.79430991    0.78361005    0.22625994    -0.06000000
opls_234-24    C    0.94667984    0.09724988    0.94896988    0.46690000
opls_700-25    C    0.96638995    0.04430991    0.97625994    -0.06000000
opls_234-26    C    0.44667984    0.59724988    0.44896988    0.46690000
opls_700-27    C    0.46638995    0.54430991    0.47625994    -0.06000000
opls_234-28    C    0.55332016    0.90275012    0.44896988    0.46690000
opls_700-29    C    0.53361005    0.95569009    0.47625994    -0.06000000
opls_234-30    C    0.05332016    0.40275012    0.94896988    0.46690000
opls_700-31    C    0.03361005    0.45569009    0.97625994    -0.06000000
opls_234-32    C    0.65275012    0.30332016    0.69896988    0.46690000
opls_700-33    C    0.70569009    0.28361005    0.72625994    -0.06000000
opls_234-34    C    0.15275012    0.80332016    0.19896988    0.46690000
opls_700-35    C    0.20569009    0.78361005    0.22625994    -0.06000000
opls_234-36    C    0.84724988    0.69667984    0.19896988    0.46690000
opls_700-37    C    0.79430991    0.71638995    0.22625994    -0.06000000
opls_234-38    C    0.34724988    0.19667984    0.69896988    0.46690000
opls_700-39    C    0.29430991    0.21638995    0.72625994    -0.06000000
opls_234-40    C    0.44667984    0.90275012    0.44896988    0.46690000
opls_700-41    C    0.46638995    0.95569009    0.47625994    -0.06000000
opls_234-42    C    0.94667984    0.40275012    0.94896988    0.46690000
opls_700-43    C    0.96638995    0.45569009    0.97625994    -0.06000000
opls_234-44    C    0.05332016    0.09724988    0.94896988    0.46690000
opls_700-45    C    0.03361005    0.04430991    0.97625994    -0.06000000
opls_234-46    C    0.55332016    0.59724988    0.44896988    0.46690000
opls_700-47    C    0.53361005    0.54430991    0.47625994    -0.06000000
opls_234-48    C    0.84724988    0.30332016    0.80103012    0.46690000
opls_700-49    C    0.79430991    0.28361005    0.77374006    -0.06000000
opls_234-50    C    0.34724988    0.80332016    0.30103012    0.46690000
opls_700-51    C    0.29430991    0.78361005    0.27374006    -0.06000000
opls_234-52    C    0.65275012    0.69667984    0.30103012    0.46690000
opls_700-53    C    0.70569009    0.71638995    0.27374006    -0.06000000
opls_234-54    C    0.15275012    0.19667984    0.80103012    0.46690000
opls_700-55    C    0.20569009    0.21638995    0.77374006    -0.06000000
opls_234-56    C    0.05332016    0.90275012    0.05103012    0.46690000
opls_700-57    C    0.03361005    0.95569009    0.02374006    -0.06000000
opls_234-58    C    0.55332016    0.40275012    0.55103012    0.46690000
opls_700-59    C    0.53361005    0.45569009    0.52374006    -0.06000000
opls_234-60    C    0.44667984    0.09724988    0.55103012    0.46690000
opls_700-61    C    0.46638995    0.04430991    0.52374006    -0.06000000
opls_234-62    C    0.94667984    0.59724988    0.05103012    0.46690000
opls_700-63    C    0.96638995    0.54430991    0.02374006    -0.06000000
opls_259-64    C    0.43738995    0.75000000    0.34595000    0.31030000
opls_259-65    C    0.06261005    0.25000000    0.84595000    0.31030000
opls_259-66    C    0.50000000    0.18738995    0.59595000    0.31030000
opls_259-67    C    0.00000000    0.68738995    0.09595000    0.31030000
opls_259-68    C    0.00000000    0.81261005    0.09595000    0.31030000
opls_259-69    C    0.50000000    0.31261005    0.59595000    0.31030000
opls_259-70    C    0.06261005    0.75000000    0.15405000    0.31030000
opls_259-71    C    0.43738995    0.25000000    0.65405000    0.31030000
opls_259-72    C    0.00000000    0.18738995    0.90405000    0.31030000
opls_259-73    C    0.50000000    0.68738995    0.40405000    0.31030000
opls_259-74    C    0.50000000    0.81261005    0.40405000    0.31030000
opls_259-75    C    0.00000000    0.31261005    0.90405000    0.31020000
opls_259-76    C    0.56261005    0.25000000    0.65405000    0.31030000
opls_259-77    C    0.93738995    0.75000000    0.15405000    0.31030000
opls_259-78    C    0.93738995    0.25000000    0.84595000    0.31030000
opls_259-79    C    0.56261005    0.75000000    0.34595000    0.31030000
opls_136-80    C    0.43893997    0.81106003    0.37500000    -0.29690000
opls_136-81    C    0.93893997    0.31106003    0.87500000    -0.29690000
opls_136-82    C    0.06106003    0.18893997    0.87500000    -0.29700000
opls_136-83    C    0.56106003    0.68893997    0.37500000    -0.29690000
opls_136-84    C    0.43893997    0.18893997    0.62500000    -0.29700000
opls_136-85    C    0.93893997    0.68893997    0.12500000    -0.29690000
opls_136-86    C    0.06106003    0.81106003    0.12500000    -0.29690000
opls_136-87    C    0.56106003    0.31106003    0.62500000    -0.29690000
opls_136-88    C    0.56106003    0.18893997    0.62500000    -0.29690000
opls_136-89    C    0.06106003    0.68893997    0.12500000    -0.29690000
opls_136-90    C    0.93893997    0.81106003    0.12500000    -0.29690000
opls_136-91    C    0.43893997    0.31106003    0.62500000    -0.29690000
opls_136-92    C    0.56106003    0.81106003    0.37500000    -0.29690000
opls_136-93    C    0.06106003    0.31106003    0.87500000    -0.29690000
opls_136-94    C    0.93893997    0.18893997    0.87500000    -0.29690000
opls_136-95    C    0.43893997    0.68893997    0.37500000    -0.29690000
opls_145-96    C    0.25000000    0.82006979    0.25000000    -0.15990000
opls_145-97    C    0.75000000    0.32006979    0.75000000    -0.15990000
opls_145-98    C    0.25000000    0.17993021    0.75000000    -0.15990000
opls_145-99    C    0.75000000    0.67993021    0.25000000    -0.15990000
opls_145-100    C    0.42993021    0.00000000    0.50000000    -0.15990000
opls_145-101    C    0.92993021    0.50000000    0.00000000    -0.15990000
opls_145-102    C    0.07006979    0.00000000    0.00000000    -0.15990000
opls_145-103    C    0.57006979    0.50000000    0.50000000    -0.15990000
opls_145-104    C    0.75000000    0.17993021    0.75000000    -0.15990000
opls_145-105    C    0.25000000    0.67993021    0.25000000    -0.16000000
opls_145-106    C    0.75000000    0.82006979    0.25000000    -0.15990000
opls_145-107    C    0.25000000    0.32006979    0.75000000    -0.15990000
opls_145-108    C    0.57006979    0.00000000    0.50000000    -0.15990000
opls_145-109    C    0.07006979    0.50000000    0.00000000    -0.15990000
opls_145-110    C    0.92993021    0.00000000    0.00000000    -0.16000000
opls_145-111    C    0.42993021    0.50000000    0.50000000    -0.16000000
opls_136-112    C    0.50000000    0.75000000    0.43040994    -0.30580000
opls_136-113    C    0.00000000    0.25000000    0.93040994    -0.30580000
opls_136-114    C    0.50000000    0.25000000    0.68040994    -0.30580000
opls_136-115    C    0.00000000    0.75000000    0.18040994    -0.30590000
opls_136-116    C    0.00000000    0.75000000    0.06959006    -0.30580000
opls_136-117    C    0.50000000    0.25000000    0.56959006    -0.30580000
opls_136-118    C    0.00000000    0.25000000    0.81959006    -0.30580000
opls_136-119    C    0.50000000    0.75000000    0.31959006    -0.30580000
opls_236-120    O    0.36383992    0.64018009    0.30584006    -0.35880000
opls_236-121    O    0.86383992    0.14018009    0.80584006    -0.35890000
opls_236-122    O    0.13616008    0.35981991    0.80584006    -0.35880000
opls_236-123    O    0.63616008    0.85981991    0.30584006    -0.35880000
opls_236-124    O    0.60981991    0.11383992    0.55584006    -0.35880000
opls_236-125    O    0.10981991    0.61383992    0.05584006    -0.35880000
opls_236-126    O    0.89018009    0.88616008    0.05584006    -0.35880000
opls_236-127    O    0.39018009    0.38616008    0.55584006    -0.35890000
opls_236-128    O    0.13616008    0.64018009    0.19415994    -0.35880000
opls_236-129    O    0.63616008    0.14018009    0.69415994    -0.35880000
opls_236-130    O    0.36383992    0.35981991    0.69415994    -0.35880000
opls_236-131    O    0.86383992    0.85981991    0.19415994    -0.35880000
opls_236-132    O    0.89018009    0.11383992    0.94415994    -0.35880000
opls_236-133    O    0.39018009    0.61383992    0.44415994    -0.35880000
opls_236-134    O    0.60981991    0.88616008    0.44415994    -0.35880000
opls_236-135    O    0.10981991    0.38616008    0.94415994    -0.35880000
opls_236-136    O    0.63616008    0.35981991    0.69415994    -0.35880000
opls_236-137    O    0.13616008    0.85981991    0.19415994    -0.35890000
opls_236-138    O    0.86383992    0.64018009    0.19415994    -0.35880000
opls_236-139    O    0.36383992    0.14018009    0.69415994    -0.35880000
opls_236-140    O    0.39018009    0.88616008    0.44415994    -0.35880000
opls_236-141    O    0.89018009    0.38616008    0.94415994    -0.35880000
opls_236-142    O    0.10981991    0.11383992    0.94415994    -0.35880000
opls_236-143    O    0.60981991    0.61383992    0.44415994    -0.35880000
opls_236-144    O    0.86383992    0.35981991    0.80584006    -0.35880000
opls_236-145    O    0.36383992    0.85981991    0.30584006    -0.35880000
opls_236-146    O    0.63616008    0.64018009    0.30584006    -0.35880000
opls_236-147    O    0.13616008    0.14018009    0.80584006    -0.35880000
opls_236-148    O    0.10981991    0.88616008    0.05584006    -0.35880000
opls_236-149    O    0.60981991    0.38616008    0.55584006    -0.35890000
opls_236-150    O    0.39018009    0.11383992    0.55584006    -0.35880000
opls_236-151    O    0.89018009    0.61383992    0.05584006    -0.35880000
opls_140-152    H    0.44049000    0.85710005    0.35711988    0.09840000
opls_140-153    H    0.94049000    0.35710005    0.85711988    0.09840000
opls_140-154    H    0.05951000    0.14289995    0.85711988    0.09840000
opls_140-155    H    0.55951000    0.64289995    0.35711988    0.09840000
opls_140-156    H    0.39289995    0.19049000    0.60711988    0.09840000
opls_140-157    H    0.89289995    0.69049000    0.10711988    0.09840000
opls_140-158    H    0.10710005    0.80951000    0.10711988    0.09840000
opls_140-159    H    0.60710005    0.30951000    0.60711988    0.09840000
opls_140-160    H    0.05951000    0.85710005    0.14288012    0.09840000
opls_140-161    H    0.55951000    0.35710005    0.64288012    0.09840000
opls_140-162    H    0.44049000    0.14289995    0.64288012    0.09840000
opls_140-163    H    0.94049000    0.64289995    0.14288012    0.09840000
opls_140-164    H    0.10710005    0.19049000    0.89288012    0.09840000
opls_140-165    H    0.60710005    0.69049000    0.39288012    0.09840000
opls_140-166    H    0.39289995    0.80951000    0.39288012    0.09840000
opls_140-167    H    0.89289995    0.30951000    0.89288012    0.09840000
opls_140-168    H    0.55951000    0.14289995    0.64288012    0.09840000
opls_140-169    H    0.05951000    0.64289995    0.14288012    0.09840000
opls_140-170    H    0.94049000    0.85710005    0.14288012    0.09840000
opls_140-171    H    0.44049000    0.35710005    0.64288012    0.09840000
opls_140-172    H    0.60710005    0.80951000    0.39288012    0.09840000
opls_140-173    H    0.10710005    0.30951000    0.89288012    0.09840000
opls_140-174    H    0.89289995    0.19049000    0.89288012    0.09840000
opls_140-175    H    0.39289995    0.69049000    0.39288012    0.09840000
opls_140-176    H    0.94049000    0.14289995    0.85711988    0.09840000
opls_140-177    H    0.44049000    0.64289995    0.35711988    0.09840000
opls_140-178    H    0.55951000    0.85710005    0.35711988    0.09840000
opls_140-179    H    0.05951000    0.35710005    0.85711988    0.09840000
opls_140-180    H    0.89289995    0.80951000    0.10711988    0.09840000
opls_140-181    H    0.39289995    0.30951000    0.60711988    0.09840000
opls_140-182    H    0.60710005    0.19049000    0.60711988    0.09840000
opls_140-183    H    0.10710005    0.69049000    0.10711988    0.09840000
opls_146-184    H    0.25000000    0.87287018    0.25000000    0.12710000
opls_146-185    H    0.75000000    0.37287018    0.75000000    0.12710000
opls_146-186    H    0.25000000    0.12712982    0.75000000    0.12710000
opls_146-187    H    0.75000000    0.62712982    0.25000000    0.12710000
opls_146-188    H    0.37712982    0.00000000    0.50000000    0.12710000
opls_146-189    H    0.87712982    0.50000000    0.00000000    0.12710000
opls_146-190    H    0.12287018    0.00000000    0.00000000    0.12710000
opls_146-191    H    0.62287018    0.50000000    0.50000000    0.12710000
opls_146-192    H    0.75000000    0.12712982    0.75000000    0.12700000
opls_146-193    H    0.25000000    0.62712982    0.25000000    0.12710000
opls_146-194    H    0.75000000    0.87287018    0.25000000    0.12710000
opls_146-195    H    0.25000000    0.37287018    0.75000000    0.12710000
opls_146-196    H    0.62287018    0.00000000    0.50000000    0.12710000
opls_146-197    H    0.12287018    0.50000000    0.00000000    0.12710000
opls_146-198    H    0.87712982    0.00000000    0.00000000    0.12710000
opls_146-199    H    0.37712982    0.50000000    0.50000000    0.12710000
opls_140-200    H    0.54344998    0.25000000    0.54893012    0.08960000
opls_140-201    H    0.95655002    0.75000000    0.04893012    0.08960000
opls_140-202    H    0.00000000    0.29344998    0.79893012    0.08960000
opls_140-203    H    0.50000000    0.79344998    0.29893012    0.08960000
opls_140-204    H    0.50000000    0.70655002    0.29893012    0.08960000
opls_140-205    H    0.00000000    0.20655002    0.79893012    0.08960000
opls_140-206    H    0.95655002    0.25000000    0.95106988    0.08960000
opls_140-207    H    0.54344998    0.75000000    0.45106988    0.08960000
opls_140-208    H    0.04344998    0.25000000    0.95106988    0.08960000
opls_140-209    H    0.50000000    0.29344998    0.70106988    0.08950000
opls_140-210    H    0.00000000    0.79344998    0.20106988    0.08960000
opls_140-211    H    0.00000000    0.70655002    0.20106988    0.08960000
opls_140-212    H    0.50000000    0.20655002    0.70106988    0.08960000
opls_140-213    H    0.45655002    0.75000000    0.45106988    0.08960000
opls_140-214    H    0.04344998    0.75000000    0.04893012    0.08960000
opls_140-215    H    0.45655002    0.25000000    0.54893012    0.08960000
opls_542-216    N    0.37789995    0.75000000    0.31869006    -0.21020000
opls_542-217    N    0.12210005    0.25000000    0.81869006    -0.21020000
opls_542-218    N    0.50000000    0.12789995    0.56869006    -0.21020000
opls_542-219    N    0.00000000    0.62789995    0.06869006    -0.21020000
opls_542-220    N    0.00000000    0.87210005    0.06869006    -0.21020000
opls_542-221    N    0.50000000    0.37210005    0.56869006    -0.21020000
opls_542-222    N    0.12210005    0.75000000    0.18130994    -0.21030000
opls_542-223    N    0.37789995    0.25000000    0.68130994    -0.21020000
opls_542-224    N    0.00000000    0.12789995    0.93130994    -0.21020000
opls_542-225    N    0.50000000    0.62789995    0.43130994    -0.21020000
opls_542-226    N    0.50000000    0.87210005    0.43130994    -0.21020000
opls_542-227    N    0.00000000    0.37210005    0.93130994    -0.21020000
opls_542-228    N    0.62210005    0.25000000    0.68130994    -0.21020000
opls_542-229    N    0.87789995    0.75000000    0.18130994    -0.21020000
opls_542-230    N    0.87789995    0.25000000    0.81869006    -0.21020000
opls_542-231    N    0.62210005    0.75000000    0.31869006    -0.21020000
