#======================================================================
# Crystal Data Generated By AuToFF
#----------------------------------------------------------------------

data_AuToFF_phase_1

_cell_length_a                         24.4206
_cell_length_b                         6.7645
_cell_length_c                         24.4213
_cell_angle_alpha                      90.00
_cell_angle_beta                       81.91
_cell_angle_gamma                      90.00
_symmetry_space_group_name_H-M_alt     'P 1'
_symmetry_space_group_IT_number        1

loop_
_space_group_symop_operation_xyz
   'x, y, z'

loop_
   _atom_site_label
   _atom_site_type_symbol
   _atom_site_fract_x
   _atom_site_fract_y
   _atom_site_fract_z
   _atom_site_charge
opls_567-0    C    0.47428015    0.50000000    0.48993005    -0.01670000
opls_567-1    C    0.01006996    0.50000000    0.02572010    -0.01670000
opls_567-2    C    0.52572026    0.50000000    0.51006995    -0.01670000
opls_567-3    C    0.98993004    0.50000000    0.97427990    -0.01670000
opls_716-4    C    0.58705994    0.50000000    0.57476000    -0.21230000
opls_716-5    C    0.92524028    0.50000000    0.91293995    -0.21280000
opls_716-6    C    0.41294006    0.50000000    0.42524000    -0.21280000
opls_716-7    C    0.07476013    0.50000000    0.08706005    -0.21280000
opls_716-8    C    0.53215003    0.50000000    0.56602989    -0.21240000
opls_716-9    C    0.93397008    0.50000000    0.96784978    -0.21240000
opls_716-10    C    0.46784997    0.50000000    0.43397011    -0.21240000
opls_716-11    C    0.06602998    0.50000000    0.03214981    -0.21240000
opls_567-12    C    0.62305006    0.50000000    0.52533980    -0.02050000
opls_567-13    C    0.97465034    0.50000000    0.87694994    -0.02050000
opls_567-14    C    0.37695017    0.50000000    0.47464986    -0.02050000
opls_567-15    C    0.02535007    0.50000000    0.12305006    -0.02050000
opls_543-16    C    0.94013009    0.50000000    0.62066012    0.14690000
opls_543-17    C    0.87934019    0.50000000    0.55987976    0.14690000
opls_543-18    C    0.05986991    0.50000000    0.37933988    0.14690000
opls_543-19    C    0.12066027    0.50000000    0.44011983    0.14690000
opls_716-20    C    0.88695992    0.50000000    0.65039992    -0.23420000
opls_716-21    C    0.84959008    0.50000000    0.61305001    -0.23420000
opls_716-22    C    0.11303984    0.50000000    0.34959015    -0.23420000
opls_716-23    C    0.15040992    0.50000000    0.38694999    -0.23430000
opls_507-24    C    0.04327009    0.50000000    0.61283991    0.15020000
opls_507-25    C    0.88716012    0.50000000    0.45673013    0.15020000
opls_507-26    C    0.95672991    0.50000000    0.38716009    0.15020000
opls_507-27    C    0.11284029    0.50000000    0.54326987    0.15020000
opls_716-28    C    0.09261995    0.50000000    0.63555980    -0.23420000
opls_716-29    C    0.86444020    0.50000000    0.40738975    -0.23430000
opls_716-30    C    0.90738011    0.50000000    0.36443979    -0.23410000
opls_716-31    C    0.13556026    0.50000000    0.59260984    -0.23430000
opls_700-32    C    0.98987001    0.50000000    0.64407981    -0.08170000
opls_700-33    C    0.85593016    0.50000000    0.51012992    -0.08170000
opls_700-34    C    0.01012022    0.50000000    0.35591977    -0.08170000
opls_700-35    C    0.14407025    0.50000000    0.48987008    -0.08170000
opls_700-36    C    0.98585996    0.50000000    0.70236993    0.07720000
opls_700-37    C    0.79764006    0.50000000    0.51414012    0.07310000
opls_700-38    C    0.01414004    0.50000000    0.29763007    0.07720000
opls_700-39    C    0.20236011    0.50000000    0.48584996    0.07310000
opls_145-40    C    0.98397021    0.31981965    0.73179003    -0.22610000
opls_145-41    C    0.76822010    0.68018035    0.51602982    -0.22610000
opls_145-42    C    0.01603020    0.31981965    0.26820997    -0.22610000
opls_145-43    C    0.23178013    0.68018035    0.48395984    -0.22610000
opls_145-44    C    0.01603020    0.68019070    0.26820997    -0.22610000
opls_145-45    C    0.23178013    0.31981965    0.48395984    -0.22610000
opls_145-46    C    0.98397021    0.68019070    0.73179003    -0.22610000
opls_145-47    C    0.76822010    0.31981965    0.51602982    -0.22610000
opls_145-48    C    0.98028013    0.31989948    0.78981999    -0.22610000
opls_145-49    C    0.71018019    0.68010939    0.51971990    -0.22610000
opls_145-50    C    0.01972004    0.31989948    0.21017008    -0.22610000
opls_145-51    C    0.28982022    0.68010939    0.48028010    -0.22610000
opls_145-52    C    0.01972004    0.68010939    0.21017008    -0.22610000
opls_145-53    C    0.28982022    0.31989948    0.48028010    -0.22610000
opls_145-54    C    0.98028013    0.68010939    0.78981999    -0.22610000
opls_145-55    C    0.71018019    0.31989948    0.51971990    -0.22610000
opls_700-56    C    0.97831003    0.50000000    0.81919997    0.05890000
opls_700-57    C    0.68080013    0.50000000    0.52168984    0.05890000
opls_700-58    C    0.02169014    0.50000000    0.18079010    0.05890000
opls_700-59    C    0.31919993    0.50000000    0.47830975    0.05890000
opls_547-60    H    0.87669000    0.50000000    0.69243005    0.19950000
opls_547-61    H    0.80756007    0.50000000    0.62331993    0.19950000
opls_547-62    H    0.12331000    0.50000000    0.30756995    0.19940000
opls_547-63    H    0.19243993    0.50000000    0.37668007    0.19950000
opls_547-64    H    0.09698032    0.50000000    0.67657993    0.19950000
opls_547-65    H    0.82340993    0.50000000    0.40303999    0.19950000
opls_547-66    H    0.90301985    0.50000000    0.32341014    0.19950000
opls_547-67    H    0.17659007    0.50000000    0.59696001    0.19940000
opls_146-68    H    0.98541005    0.18796955    0.71110005    0.19950000
opls_146-69    H    0.78891995    0.81202010    0.51460003    0.19950000
opls_146-70    H    0.01458995    0.18796955    0.28889995    0.19950000
opls_146-71    H    0.21109029    0.81202010    0.48539997    0.19950000
opls_146-72    H    0.01458995    0.81203045    0.28889995    0.19950000
opls_146-73    H    0.21109029    0.18797990    0.48539997    0.19950000
opls_146-74    H    0.98541005    0.81203045    0.71110005    0.19950000
opls_146-75    H    0.78891995    0.18797990    0.51460003    0.19950000
opls_146-76    H    0.97922029    0.18825043    0.81057987    0.19950000
opls_146-77    H    0.68942999    0.81174957    0.52077994    0.19940000
opls_146-78    H    0.02076988    0.18825043    0.18942013    0.19950000
opls_146-79    H    0.31057001    0.81174957    0.47922006    0.19950000
opls_146-80    H    0.02076988    0.81174957    0.18942013    0.19950000
opls_146-81    H    0.31057001    0.18825043    0.47922006    0.19950000
opls_146-82    H    0.97922029    0.81174957    0.81057987    0.19950000
opls_146-83    H    0.68942999    0.18825043    0.52077994    0.19950000
opls_570-84    H    0.59942997    0.50000000    0.61305001    0.19950000
opls_570-85    H    0.49993026    0.50000000    0.59766974    0.19950000
opls_570-86    H    0.88695024    0.50000000    0.90056981    0.19950000
opls_570-87    H    0.90232999    0.50000000    0.00006990    0.19950000
opls_570-88    H    0.40057003    0.50000000    0.38694999    0.19950000
opls_570-89    H    0.50005997    0.50000000    0.40232985    0.19950000
opls_570-90    H    0.11304998    0.50000000    0.09941985    0.19950000
opls_570-91    H    0.09767001    0.50000000    0.99993010    0.19950000
opls_545-92    H    0.96357027    0.50000000    0.53641995    0.23910000
opls_545-93    H    0.03643014    0.50000000    0.46358005    0.23910000
opls_542-94    N    0.05707010    0.50000000    0.55707974    -0.35010000
opls_542-95    N    0.94292995    0.50000000    0.44291985    -0.35010000
opls_542-96    N    0.93327015    0.50000000    0.56673010    -0.33570000
opls_542-97    N    0.06673002    0.50000000    0.43325998    -0.33570000
opls_633-98    S    0.41055008    0.50000000    0.53257974    0.11380000
opls_633-99    S    0.96741014    0.50000000    0.08944979    0.11240000
opls_633-100    S    0.58945014    0.50000000    0.46740992    0.11380000
opls_633-101    S    0.03259033    0.50000000    0.91054980    0.11240000
