#======================================================================
# Crystal Data Generated By AuToFF
#----------------------------------------------------------------------

data_AuToFF_phase_1

_cell_length_a                         18.1794
_cell_length_b                         18.1794
_cell_length_c                         3.5373
_cell_angle_alpha                      90.00
_cell_angle_beta                       90.00
_cell_angle_gamma                      120.00
_symmetry_space_group_name_H-M_alt     'P 1'
_symmetry_space_group_IT_number        1

loop_
_space_group_symop_operation_xyz
   'x, y, z'

loop_
   _atom_site_label
   _atom_site_type_symbol
   _atom_site_fract_x
   _atom_site_fract_y
   _atom_site_fract_z
   _atom_site_charge
opls_700-0    C    0.39858013    0.75156029    0.56515139    -0.04110000
opls_145-1    C    0.31398013    0.73098016    0.56696068    -0.07010000
opls_234-2    C    0.47126981    0.84105001    0.56489978    0.49640000
opls_916-3    C    0.49278036    0.98538030    0.41784129    0.21380000
opls_145-4    C    0.58087000    0.03018010    0.38295875    -0.17410000
opls_523-5    C    0.62546980    0.11701988    0.34745993    -0.12910000
opls_700-6    C    0.58148004    0.16319991    0.34362084    0.03620000
opls_523-7    C    0.49143011    0.11735970    0.36696068    -0.12800000
opls_145-8    C    0.44950022    0.03059994    0.40575015    -0.18330000
opls_531-9    C    0.62539036    0.25082032    0.33111130    0.39210000
opls_700-10    C    0.24843998    0.64702023    0.56515139    -0.04110000
opls_145-11    C    0.26902025    0.58300019    0.56696068    -0.07010000
opls_234-12    C    0.15894972    0.63021998    0.56489978    0.49640000
opls_916-13    C    0.01462023    0.50740036    0.41784129    0.21380000
opls_145-14    C    0.96982025    0.55069037    0.38295875    -0.17410000
opls_523-15    C    0.88298022    0.50845030    0.34745993    -0.12910000
opls_700-16    C    0.83680004    0.41828032    0.34362084    0.03620000
opls_523-17    C    0.88263989    0.37406995    0.36696068    -0.12800000
opls_145-18    C    0.96940039    0.41890024    0.40575015    -0.18330000
opls_531-19    C    0.74917970    0.37456983    0.33111130    0.39210000
opls_700-20    C    0.35298021    0.60142011    0.56515139    -0.04110000
opls_145-21    C    0.41699994    0.68602029    0.56696068    -0.07010000
opls_234-22    C    0.36977992    0.52873000    0.56489978    0.49640000
opls_916-23    C    0.49259972    0.50721998    0.41784129    0.21380000
opls_145-24    C    0.44931007    0.41913017    0.38295875    -0.17410000
opls_523-25    C    0.49154998    0.37452982    0.34745993    -0.12910000
opls_700-26    C    0.58171992    0.41851977    0.34362084    0.03620000
opls_523-27    C    0.62593000    0.50857035    0.36696068    -0.12800000
opls_145-28    C    0.58109994    0.55049982    0.40575015    -0.18330000
opls_531-29    C    0.62542994    0.37460985    0.33111130    0.39210000
opls_238-30    N    0.44589985    0.89756997    0.45823934    -0.33700000
opls_520-31    N    0.71017976    0.28976005    0.33197071    -0.39200000
opls_238-32    N    0.10243000    0.54833007    0.45823934    -0.33690000
opls_520-33    N    0.71024036    0.42042020    0.33197071    -0.39210000
opls_238-34    N    0.45167015    0.55409996    0.45823934    -0.33700000
opls_520-35    N    0.57957989    0.28981975    0.33197071    -0.39210000
opls_236-36    O    0.54410993    0.86233011    0.64442089    -0.36160000
opls_236-37    O    0.13766982    0.68177990    0.64442089    -0.36170000
opls_236-38    O    0.31822025    0.45588999    0.64442089    -0.36170000
opls_146-39    H    0.29602984    0.78020010    0.57530885    0.07680000
opls_241-40    H    0.38487992    0.87385018    0.38937890    0.29870000
opls_146-41    H    0.61772007    0.99752030    0.38071976    0.07770000
opls_526-42    H    0.69491015    0.14995979    0.32704040    0.07520000
opls_526-43    H    0.45532005    0.15088015    0.36487999    0.08650000
opls_146-44    H    0.38014968    0.99771974    0.42996919    0.06300000
opls_146-45    H    0.21980005    0.51583034    0.57530885    0.07680000
opls_241-46    H    0.12615007    0.51103036    0.38937890    0.29870000
opls_146-47    H    0.00247993    0.62020018    0.38071976    0.07770000
opls_526-48    H    0.85004043    0.54495034    0.32704040    0.07520000
opls_526-49    H    0.84911983    0.30444009    0.36487999    0.08650000
opls_146-50    H    0.00228030    0.38243006    0.42996919    0.06300000
opls_146-51    H    0.48416988    0.70397019    0.57530885    0.07680000
opls_241-52    H    0.48896977    0.61512009    0.38937890    0.29870000
opls_146-53    H    0.37980032    0.38228016    0.38071976    0.07770000
opls_526-54    H    0.45504997    0.30508987    0.32704040    0.07520000
opls_526-55    H    0.69556043    0.54468039    0.36487999    0.08650000
opls_146-56    H    0.61757002    0.61985020    0.42996919    0.06300000
