#======================================================================
# Crystal Data Generated By AuToFF
#----------------------------------------------------------------------

data_AuToFF_phase_1

_cell_length_a                         38.5330
_cell_length_b                         38.5330
_cell_length_c                         3.3670
_cell_angle_alpha                      90.00
_cell_angle_beta                       90.00
_cell_angle_gamma                      90.00
_symmetry_space_group_name_H-M_alt     'P 1'
_symmetry_space_group_IT_number        1

loop_
_space_group_symop_operation_xyz
   'x, y, z'

loop_
   _atom_site_label
   _atom_site_type_symbol
   _atom_site_fract_x
   _atom_site_fract_y
   _atom_site_fract_z
   _atom_site_charge
opls_145-0    C    0.01868009    0.46885008    0.50000000    -0.13220000
opls_145-1    C    0.17030000    0.46885008    0.50000000    -0.13080000
opls_145-2    C    0.20761996    0.46885008    0.50000000    -0.04990000
opls_166-3    C    0.32739989    0.48197000    0.50000000    0.16910000
opls_145-4    C    0.35943010    0.46288013    0.50000000    -0.27110000
opls_700-5    C    0.39129992    0.48200997    0.50000000    0.01500000
opls_543-6    C    0.42667999    0.47167000    0.50000000    0.29060000
opls_145-7    C    0.98131991    0.53114992    0.50000000    -0.13220000
opls_145-8    C    0.82970000    0.53114992    0.50000000    -0.13080000
opls_145-9    C    0.79238004    0.53114992    0.50000000    -0.04990000
opls_166-10    C    0.67260011    0.51803000    0.50000000    0.16920000
opls_145-11    C    0.64058002    0.53711987    0.50000000    -0.27110000
opls_700-12    C    0.60870008    0.51799003    0.50000000    0.01490000
opls_543-13    C    0.57332001    0.52833000    0.50000000    0.29060000
opls_145-14    C    0.53114992    0.01868009    0.50000000    -0.13220000
opls_145-15    C    0.53114992    0.17030000    0.50000000    -0.13080000
opls_145-16    C    0.53114992    0.20761996    0.50000000    -0.04990000
opls_166-17    C    0.51803000    0.32739989    0.50000000    0.16910000
opls_145-18    C    0.53711987    0.35943010    0.50000000    -0.27110000
opls_700-19    C    0.51799003    0.39129992    0.50000000    0.01500000
opls_543-20    C    0.52833000    0.42667999    0.50000000    0.29060000
opls_145-21    C    0.46885008    0.98131991    0.50000000    -0.13220000
opls_145-22    C    0.46885008    0.82970000    0.50000000    -0.13080000
opls_145-23    C    0.46885008    0.79238004    0.50000000    -0.04990000
opls_166-24    C    0.48197000    0.67260011    0.50000000    0.16920000
opls_145-25    C    0.46288013    0.64058002    0.50000000    -0.27110000
opls_700-26    C    0.48200997    0.60870008    0.50000000    0.01490000
opls_543-27    C    0.47167000    0.57332001    0.50000000    0.29060000
opls_145-28    C    0.98131991    0.46885008    0.50000000    -0.13220000
opls_145-29    C    0.82970000    0.46885008    0.50000000    -0.13080000
opls_145-30    C    0.79238004    0.46885008    0.50000000    -0.04990000
opls_166-31    C    0.67260011    0.48197000    0.50000000    0.16920000
opls_145-32    C    0.64058002    0.46288013    0.50000000    -0.27110000
opls_700-33    C    0.60870008    0.48200997    0.50000000    0.01490000
opls_543-34    C    0.57332001    0.47167000    0.50000000    0.29060000
opls_145-35    C    0.01868009    0.53114992    0.50000000    -0.13220000
opls_145-36    C    0.17030000    0.53114992    0.50000000    -0.13080000
opls_145-37    C    0.20761996    0.53114992    0.50000000    -0.04990000
opls_166-38    C    0.32739989    0.51803000    0.50000000    0.16910000
opls_145-39    C    0.35943010    0.53711987    0.50000000    -0.27110000
opls_700-40    C    0.39129992    0.51799003    0.50000000    0.01500000
opls_543-41    C    0.42667999    0.52833000    0.50000000    0.29060000
opls_145-42    C    0.46885008    0.01868009    0.50000000    -0.13220000
opls_145-43    C    0.46885008    0.17030000    0.50000000    -0.13080000
opls_145-44    C    0.46885008    0.20761996    0.50000000    -0.04990000
opls_166-45    C    0.48197000    0.32739989    0.50000000    0.16910000
opls_145-46    C    0.46288013    0.35943010    0.50000000    -0.27110000
opls_700-47    C    0.48200997    0.39129992    0.50000000    0.01500000
opls_543-48    C    0.47167000    0.42667999    0.50000000    0.29060000
opls_145-49    C    0.53114992    0.98131991    0.50000000    -0.13220000
opls_145-50    C    0.53114992    0.82970000    0.50000000    -0.13080000
opls_145-51    C    0.53114992    0.79238004    0.50000000    -0.04990000
opls_166-52    C    0.51803000    0.67260011    0.50000000    0.16920000
opls_145-53    C    0.53711987    0.64058002    0.50000000    -0.27110000
opls_700-54    C    0.51799003    0.60870008    0.50000000    0.01490000
opls_543-55    C    0.52833000    0.57332001    0.50000000    0.29060000
opls_700-56    C    0.03844004    0.50000000    0.50000000    0.06170000
opls_261-57    C    0.07810993    0.50000000    0.50000000    -0.13910000
opls_261-58    C    0.11086990    0.50000000    0.50000000    -0.13880000
opls_700-59    C    0.15052994    0.50000000    0.50000000    0.06170000
opls_145-60    C    0.22744012    0.50000000    0.50000000    -0.22050000
opls_700-61    C    0.96155996    0.50000000    0.50000000    0.06170000
opls_261-62    C    0.92189007    0.50000000    0.50000000    -0.13910000
opls_261-63    C    0.88913010    0.50000000    0.50000000    -0.13880000
opls_700-64    C    0.84947006    0.50000000    0.50000000    0.06170000
opls_145-65    C    0.77255988    0.50000000    0.50000000    -0.22050000
opls_700-66    C    0.50000000    0.03844004    0.50000000    0.06170000
opls_261-67    C    0.50000000    0.07810993    0.50000000    -0.13910000
opls_261-68    C    0.50000000    0.11086990    0.50000000    -0.13880000
opls_700-69    C    0.50000000    0.15052994    0.50000000    0.06170000
opls_145-70    C    0.50000000    0.22744012    0.50000000    -0.22050000
opls_700-71    C    0.50000000    0.96155996    0.50000000    0.06170000
opls_261-72    C    0.50000000    0.92189007    0.50000000    -0.13910000
opls_261-73    C    0.50000000    0.88913010    0.50000000    -0.13880000
opls_700-74    C    0.50000000    0.84947006    0.50000000    0.06170000
opls_145-75    C    0.50000000    0.77255988    0.50000000    -0.22050000
opls_167-76    O    0.29326006    0.46819012    0.50000000    -0.39120000
opls_167-77    O    0.70673994    0.53180988    0.50000000    -0.39120000
opls_167-78    O    0.53180988    0.29326006    0.50000000    -0.39120000
opls_167-79    O    0.46819012    0.70673994    0.50000000    -0.39120000
opls_167-80    O    0.70673994    0.46819012    0.50000000    -0.39120000
opls_167-81    O    0.29326006    0.53180988    0.50000000    -0.39120000
opls_167-82    O    0.46819012    0.29326006    0.50000000    -0.39120000
opls_167-83    O    0.53180988    0.70673994    0.50000000    -0.39120000
opls_146-84    H    0.03142994    0.44559001    0.50000000    0.21830000
opls_146-85    H    0.15754003    0.44559001    0.50000000    0.21830000
opls_146-86    H    0.22045000    0.44559001    0.50000000    0.21830000
opls_146-87    H    0.35911011    0.43639997    0.50000000    0.21830000
opls_146-88    H    0.96857006    0.55440999    0.50000000    0.21840000
opls_146-89    H    0.84245997    0.55440999    0.50000000    0.21830000
opls_146-90    H    0.77955000    0.55440999    0.50000000    0.21830000
opls_146-91    H    0.64088989    0.56360003    0.50000000    0.21830000
opls_146-92    H    0.55440999    0.03142994    0.50000000    0.21830000
opls_146-93    H    0.55440999    0.15754003    0.50000000    0.21830000
opls_146-94    H    0.55440999    0.22045000    0.50000000    0.21830000
opls_146-95    H    0.56360003    0.35911011    0.50000000    0.21830000
opls_146-96    H    0.44559001    0.96857006    0.50000000    0.21830000
opls_146-97    H    0.44559001    0.84245997    0.50000000    0.21830000
opls_146-98    H    0.44559001    0.77955000    0.50000000    0.21830000
opls_146-99    H    0.43639997    0.64088989    0.50000000    0.21830000
opls_146-100    H    0.96857006    0.44559001    0.50000000    0.21830000
opls_146-101    H    0.84245997    0.44559001    0.50000000    0.21830000
opls_146-102    H    0.77955000    0.44559001    0.50000000    0.21830000
opls_146-103    H    0.64088989    0.43639997    0.50000000    0.21830000
opls_146-104    H    0.03142994    0.55440999    0.50000000    0.21830000
opls_146-105    H    0.15754003    0.55440999    0.50000000    0.21830000
opls_146-106    H    0.22045000    0.55440999    0.50000000    0.21830000
opls_146-107    H    0.35911011    0.56360003    0.50000000    0.21830000
opls_146-108    H    0.44559001    0.03142994    0.50000000    0.21830000
opls_146-109    H    0.44559001    0.15754003    0.50000000    0.21830000
opls_146-110    H    0.44559001    0.22045000    0.50000000    0.21830000
opls_146-111    H    0.43639997    0.35911011    0.50000000    0.21830000
opls_146-112    H    0.55440999    0.96857006    0.50000000    0.21830000
opls_146-113    H    0.55440999    0.84245997    0.50000000    0.21830000
opls_146-114    H    0.55440999    0.77955000    0.50000000    0.21830000
opls_146-115    H    0.56360003    0.64088989    0.50000000    0.21830000
MOF2_B_2-116    B    0.27095996    0.50000000    0.50000000    0.47580000
MOF2_B_2-117    B    0.72904004    0.50000000    0.50000000    0.47580000
MOF2_B_2-118    B    0.50000000    0.27095996    0.50000000    0.47580000
MOF2_B_2-119    B    0.50000000    0.72904004    0.50000000    0.47580000
opls_542-120    N    0.44838009    0.50000000    0.50000000    -0.48760000
opls_542-121    N    0.55161991    0.50000000    0.50000000    -0.48760000
opls_542-122    N    0.50000000    0.44838009    0.50000000    -0.48760000
opls_542-123    N    0.50000000    0.55161991    0.50000000    -0.48760000
opls_750-124    N    0.43786002    0.43786002    0.50000000    -0.51760000
opls_750-125    N    0.56213998    0.56213998    0.50000000    -0.51760000
opls_750-126    N    0.56213998    0.43786002    0.50000000    -0.51760000
opls_750-127    N    0.43786002    0.56213998    0.50000000    -0.51760000
Zn2+-128    Zn    0.50000000    0.50000000    0.50000000    0.63590000
