#======================================================================
# Crystal Data Generated By AuToFF
#----------------------------------------------------------------------

data_AuToFF_phase_1

_cell_length_a                         28.0900
_cell_length_b                         28.0900
_cell_length_c                         3.9500
_cell_angle_alpha                      90.00
_cell_angle_beta                       90.00
_cell_angle_gamma                      120.00
_symmetry_space_group_name_H-M_alt     'P 1'
_symmetry_space_group_IT_number        1

loop_
_space_group_symop_operation_xyz
   'x, y, z'

loop_
   _atom_site_label
   _atom_site_type_symbol
   _atom_site_fract_x
   _atom_site_fract_y
   _atom_site_fract_z
   _atom_site_charge
opls_166-0    C    0.55062013    0.44480025    0.91114937    0.33510000
opls_166-1    C    0.55520022    0.10582016    0.91114937    0.33510000
opls_166-2    C    0.89417985    0.44938000    0.91114937    0.33520000
opls_166-3    C    0.44479985    0.55062000    0.08885063    0.33510000
opls_166-4    C    0.10582009    0.55520016    0.08885063    0.33510000
opls_166-5    C    0.44938026    0.89418025    0.08885063    0.33510000
opls_700-6    C    0.60401010    0.47341003    0.75483038    -0.03220000
opls_700-7    C    0.52659013    0.13059998    0.75483038    -0.03220000
opls_700-8    C    0.86940012    0.39598999    0.75483038    -0.03220000
opls_700-9    C    0.47341013    0.60401001    0.24516962    -0.03220000
opls_700-10    C    0.13060008    0.52658997    0.24516962    -0.03220000
opls_700-11    C    0.39599015    0.86940002    0.24516962    -0.03220000
opls_145-12    C    0.63063013    0.44441014    0.69002025    -0.17370000
opls_145-13    C    0.55558991    0.18622005    0.69002025    -0.17360000
opls_145-14    C    0.81378016    0.36937022    0.69002025    -0.17370000
opls_145-15    C    0.44441015    0.63063019    0.30997975    -0.17370000
opls_145-16    C    0.18622020    0.55559027    0.30997975    -0.17360000
opls_145-17    C    0.36936986    0.81377995    0.30997975    -0.17370000
opls_700-18    C    0.60652992    0.38901000    0.76457975    0.08970000
opls_700-19    C    0.61098992    0.21751988    0.76457975    0.08970000
opls_700-20    C    0.78248017    0.39347012    0.76457975    0.08970000
opls_700-21    C    0.38901025    0.60653029    0.23542025    0.08970000
opls_700-22    C    0.21751992    0.61099000    0.23542025    0.08970000
opls_700-23    C    0.39347003    0.78248012    0.23542025    0.08970000
opls_145-24    C    0.55555006    0.36175018    0.92140000    -0.14380000
opls_145-25    C    0.63825005    0.19380021    0.92140000    -0.14380000
opls_145-26    C    0.80620009    0.44445002    0.92140000    -0.14380000
opls_145-27    C    0.36175007    0.55554998    0.07860000    -0.14380000
opls_145-28    C    0.19380009    0.63825023    0.07860000    -0.14380000
opls_145-29    C    0.44445004    0.80620020    0.07860000    -0.14380000
opls_700-30    C    0.52616015    0.38814017    0.99851899    -0.04230000
opls_700-31    C    0.61186004    0.13801983    0.99851899    -0.04230000
opls_700-32    C    0.86198017    0.47384001    0.99851899    -0.04230000
opls_700-33    C    0.38814016    0.52615999    0.00148101    -0.04230000
opls_700-34    C    0.13802019    0.61186024    0.00148101    -0.04230000
opls_700-35    C    0.47384021    0.86198017    0.00148101    -0.04230000
opls_516-36    C    0.46623005    0.35046009    0.19508101    0.24990000
opls_516-37    C    0.64954011    0.11577015    0.19508101    0.24990000
opls_516-38    C    0.88423005    0.53377017    0.19508101    0.24990000
opls_516-39    C    0.35046009    0.46623025    0.80491899    0.24990000
opls_516-40    C    0.11576995    0.64953991    0.80491899    0.24990000
opls_516-41    C    0.53377017    0.88423026    0.80491899    0.24990000
opls_135-42    C    0.45801021    0.39141024    0.40108101    -0.41260000
opls_135-43    C    0.60859024    0.06660021    0.40108101    -0.41260000
opls_135-44    C    0.93340011    0.54198996    0.40108101    -0.41260000
opls_135-45    C    0.39141015    0.45801004    0.59891899    -0.41260000
opls_135-46    C    0.06660017    0.60859017    0.59891899    -0.41260000
opls_135-47    C    0.54199024    0.93340020    0.59891899    -0.41260000
opls_135-48    C    0.46963024    0.30401021    0.39195949    -0.43530000
opls_135-49    C    0.69599014    0.16562001    0.39195949    -0.43530000
opls_135-50    C    0.83438003    0.53035991    0.39195949    -0.43530000
opls_135-51    C    0.30401020    0.46963022    0.60804051    -0.43530000
opls_135-52    C    0.16562023    0.69599020    0.60804051    -0.43530000
opls_135-53    C    0.53036016    0.83437999    0.60804051    -0.43530000
opls_135-54    C    0.40300009    0.31293006    0.07505063    -0.45180000
opls_135-55    C    0.68705989    0.09006994    0.07505063    -0.45180000
opls_135-56    C    0.90993005    0.59700000    0.07505063    -0.45180000
opls_135-57    C    0.31294002    0.40300000    0.92494937    -0.45170000
opls_135-58    C    0.09007009    0.68706008    0.92494937    -0.45180000
opls_135-59    C    0.59699992    0.90993006    0.92494937    -0.45180000
opls_700-60    C    0.63690988    0.36066988    0.70927089    0.08910000
opls_700-61    C    0.63932996    0.27623984    0.70927089    0.08920000
opls_700-62    C    0.72375995    0.36308986    0.70927089    0.08910000
opls_700-63    C    0.36067009    0.63691014    0.29072911    0.08910000
opls_700-64    C    0.27624000    0.63933012    0.29072911    0.08910000
opls_700-65    C    0.36309012    0.72376016    0.29072911    0.08910000
opls_145-66    C    0.60965021    0.30362010    0.71028101    -0.13080000
opls_145-67    C    0.69638001    0.30603022    0.71028101    -0.13090000
opls_145-68    C    0.69396999    0.39035009    0.71028101    -0.13090000
opls_145-69    C    0.30361990    0.60964991    0.28971899    -0.13090000
opls_145-70    C    0.30603031    0.69638031    0.28971899    -0.13090000
opls_145-71    C    0.39035000    0.69397019    0.28971899    -0.13090000
opls_142-72    C    0.63852990    0.53252010    0.66129114    0.06660000
opls_142-73    C    0.46747994    0.10601008    0.66129114    0.06670000
opls_142-74    C    0.89399001    0.36147024    0.66129114    0.06660000
opls_142-75    C    0.53251998    0.63853017    0.33870886    0.06660000
opls_142-76    C    0.10600980    0.46747990    0.33870886    0.06660000
opls_142-77    C    0.36147007    0.89399034    0.33870886    0.06660000
opls_137-78    C    0.62019022    0.65043029    0.56084051    0.11760000
opls_137-79    C    0.34957009    0.96976032    0.56084051    0.11760000
opls_137-80    C    0.03024010    0.37981021    0.56084051    0.11760000
opls_137-81    C    0.65043010    0.62019020    0.43915949    0.11760000
opls_137-82    C    0.96976014    0.34957012    0.43915949    0.11760000
opls_137-83    C    0.37980997    0.03024009    0.43915949    0.11760000
opls_136-84    C    0.05973011    0.35015014    0.42909873    -0.20830000
opls_136-85    C    0.64985028    0.70958023    0.42909873    -0.20830000
opls_136-86    C    0.29042017    0.94027003    0.42909873    -0.20830000
opls_136-87    C    0.35015014    0.05972997    0.57090127    -0.20830000
opls_136-88    C    0.70958017    0.64985027    0.57090127    -0.20830000
opls_136-89    C    0.94027025    0.29042018    0.57090127    -0.20830000
opls_136-90    C    0.03008001    0.29083002    0.55652911    -0.14910000
opls_136-91    C    0.70917012    0.73925016    0.55652911    -0.14920000
opls_136-92    C    0.26075008    0.96992023    0.55652911    -0.14920000
opls_136-93    C    0.29083005    0.03008018    0.44347089    -0.14910000
opls_136-94    C    0.73925000    0.70916998    0.44347089    -0.14910000
opls_136-95    C    0.96991995    0.26074984    0.44347089    -0.14920000
opls_167-96    O    0.52033992    0.46995003    0.97607089    -0.44270000
opls_167-97    O    0.53005011    0.05039000    0.97607089    -0.44260000
opls_167-98    O    0.94960997    0.47965996    0.97607089    -0.44270000
opls_167-99    O    0.46995001    0.52034004    0.02392911    -0.44260000
opls_167-100    O    0.05038988    0.53004997    0.02392911    -0.44270000
opls_167-101    O    0.47966011    0.94961000    0.02392911    -0.44270000
opls_900-102    N    0.56186016    0.61937998    0.46717975    -0.20020000
opls_900-103    N    0.38061983    0.94247996    0.46717975    -0.20020000
opls_900-104    N    0.05752001    0.43814006    0.46717975    -0.20010000
opls_900-105    N    0.61937995    0.56185994    0.53282025    -0.20020000
opls_900-106    N    0.94248018    0.38062002    0.53282025    -0.20020000
opls_900-107    N    0.43813987    0.05752004    0.53282025    -0.20020000
opls_146-108    H    0.67344019    0.46605020    0.57252911    0.04090000
opls_146-109    H    0.53394981    0.20738984    0.57252911    0.04090000
opls_146-110    H    0.79260999    0.32655997    0.57252911    0.04090000
opls_146-111    H    0.46605003    0.67344003    0.42747089    0.04090000
opls_146-112    H    0.20739020    0.53395022    0.42747089    0.04090000
opls_146-113    H    0.32655998    0.79261016    0.42747089    0.04090000
opls_146-114    H    0.53663011    0.31645993    0.99073924    0.04090000
opls_146-115    H    0.68354000    0.22017006    0.99073924    0.04090000
opls_146-116    H    0.77982990    0.46337001    0.99073924    0.04090000
opls_146-117    H    0.31645989    0.53662999    0.00926076    0.04090000
opls_146-118    H    0.22017018    0.68354007    0.00926076    0.04090000
opls_146-119    H    0.46336994    0.77982994    0.00926076    0.04090000
opls_140-120    H    0.43711014    0.37694010    0.62944051    0.16070000
opls_140-121    H    0.62305999    0.06016981    0.62944051    0.16070000
opls_140-122    H    0.93982988    0.56289008    0.62944051    0.16070000
opls_140-123    H    0.37693979    0.43710992    0.37055949    0.16070000
opls_140-124    H    0.06017003    0.62305990    0.37055949    0.16070000
opls_140-125    H    0.56289017    0.93983019    0.37055949    0.16070000
opls_140-126    H    0.43576002    0.40756989    0.25278987    0.12680000
opls_140-127    H    0.59243003    0.02819007    0.25278987    0.12690000
opls_140-128    H    0.97180995    0.56424004    0.25278987    0.12680000
opls_140-129    H    0.40756990    0.43575996    0.74721013    0.12680000
opls_140-130    H    0.02819014    0.59243011    0.74721013    0.12680000
opls_140-131    H    0.56424016    0.97181034    0.74721013    0.12680000
opls_140-132    H    0.49526019    0.42748015    0.45798987    0.16060000
opls_140-133    H    0.57252011    0.06777999    0.45798987    0.16060000
opls_140-134    H    0.93222026    0.50474027    0.45798987    0.16060000
opls_140-135    H    0.42748019    0.49526014    0.54201013    0.16060000
opls_140-136    H    0.06778024    0.57252026    0.54201013    0.16060000
opls_140-137    H    0.50474012    0.93222001    0.54201013    0.16060000
opls_140-138    H    0.44709019    0.29095005    0.61989114    0.16060000
opls_140-139    H    0.70905000    0.15613987    0.61989114    0.16060000
opls_140-140    H    0.84386017    0.55291008    0.61989114    0.16060000
opls_140-141    H    0.29095009    0.44708992    0.38010886    0.16070000
opls_140-142    H    0.15614014    0.70904995    0.38010886    0.16060000
opls_140-143    H    0.55291013    0.84386013    0.38010886    0.16060000
opls_140-144    H    0.50999991    0.31220986    0.45741013    0.10790000
opls_140-145    H    0.68779002    0.19779008    0.45741013    0.10780000
opls_140-146    H    0.80221007    0.49000006    0.45741013    0.10790000
opls_140-147    H    0.31221001    0.50999994    0.54258987    0.10780000
opls_140-148    H    0.19779005    0.68779014    0.54258987    0.10780000
opls_140-149    H    0.48999994    0.80220992    0.54258987    0.10780000
opls_140-150    H    0.45438995    0.26606006    0.23635949    0.11050000
opls_140-151    H    0.73394005    0.18833008    0.23635949    0.11050000
opls_140-152    H    0.81167021    0.54561027    0.23635949    0.11050000
opls_140-153    H    0.26606015    0.45439014    0.76364051    0.11050000
opls_140-154    H    0.18832988    0.73393994    0.76364051    0.11050000
opls_140-155    H    0.54560997    0.81166992    0.76364051    0.11050000
opls_140-156    H    0.37729006    0.29686989    0.30821013    0.10080000
opls_140-157    H    0.70312992    0.08042003    0.30821013    0.10070000
opls_140-158    H    0.91958003    0.62271007    0.30821013    0.10080000
opls_140-159    H    0.29687011    0.37730020    0.69178987    0.10070000
opls_140-160    H    0.08042016    0.70313011    0.69178987    0.10060000
opls_140-161    H    0.62270988    0.91957997    0.69178987    0.10080000
opls_140-162    H    0.38915003    0.27273011    0.95362025    0.11130000
opls_140-163    H    0.72726979    0.11642992    0.95362025    0.13340000
opls_140-164    H    0.88357998    0.61085024    0.95362025    0.11130000
opls_140-165    H    0.27272994    0.38915017    0.04637975    0.13340000
opls_140-166    H    0.11643009    0.72727030    0.04637975    0.13340000
opls_140-167    H    0.61085019    0.88357008    0.04637975    0.13340000
opls_140-168    H    0.38082018    0.33240006    0.96324051    0.12690000
opls_140-169    H    0.66760025    0.04842015    0.96324051    0.12680000
opls_140-170    H    0.95158013    0.61918020    0.96324051    0.12680000
opls_140-171    H    0.33240014    0.38082021    0.03675949    0.12630000
opls_140-172    H    0.04842012    0.66759994    0.03675949    0.12680000
opls_140-173    H    0.61918031    0.95158026    0.03675949    0.12680000
opls_146-174    H    0.56280006    0.27916010    0.71195949    0.04100000
opls_146-175    H    0.72083992    0.28363996    0.71195949    0.04090000
opls_146-176    H    0.71636003    0.43719994    0.71195949    0.04090000
opls_146-177    H    0.27916009    0.56280006    0.28804051    0.04090000
opls_146-178    H    0.28363996    0.72083990    0.28804051    0.04090000
opls_146-179    H    0.43719996    0.71636004    0.28804051    0.04090000
opls_144-180    H    0.68491013    0.55456999    0.70215949    0.02420000
opls_144-181    H    0.44542997    0.13034018    0.70215949    0.02420000
opls_144-182    H    0.86966011    0.31509024    0.70215949    0.02420000
opls_144-183    H    0.55457007    0.68491017    0.29784051    0.02420000
opls_144-184    H    0.13034014    0.44543001    0.29784051    0.02420000
opls_144-185    H    0.31508999    0.86966023    0.29784051    0.02420000
opls_140-186    H    0.62253995    0.65234013    0.84893924    0.04570000
opls_140-187    H    0.34766007    0.97020017    0.84893924    0.04570000
opls_140-188    H    0.02980019    0.37746011    0.84893924    0.04570000
opls_140-189    H    0.65234008    0.62253989    0.15106076    0.04570000
opls_140-190    H    0.97019982    0.34765987    0.15106076    0.04570000
opls_140-191    H    0.37745990    0.02979983    0.15106076    0.04570000
opls_140-192    H    0.05958014    0.35034006    0.14058987    0.09890000
opls_140-193    H    0.64966001    0.70924028    0.14058987    0.09890000
opls_140-194    H    0.29076005    0.94042007    0.14058987    0.09890000
opls_140-195    H    0.35033998    0.05957993    0.85941013    0.09890000
opls_140-196    H    0.70924008    0.64965994    0.85941013    0.09900000
opls_140-197    H    0.94041994    0.29076013    0.85941013    0.09890000
opls_140-198    H    0.10396997    0.37210015    0.52440000    0.09890000
opls_140-199    H    0.62790021    0.73187019    0.52440000    0.09890000
opls_140-200    H    0.26813002    0.89603007    0.52440000    0.09890000
opls_140-201    H    0.37209995    0.10396993    0.47560000    0.09890000
opls_140-202    H    0.73187003    0.62790027    0.47560000    0.09890000
opls_140-203    H    0.89603022    0.26813022    0.47560000    0.09890000
opls_140-204    H    0.03194000    0.29080987    0.84473924    0.09890000
opls_140-205    H    0.70919013    0.74113000    0.84473924    0.09890000
opls_140-206    H    0.25887022    0.96806013    0.84473924    0.09890000
opls_140-207    H    0.29081009    0.03193987    0.15526076    0.09890000
opls_140-208    H    0.74113013    0.70919013    0.15526076    0.09890000
opls_140-209    H    0.96806014    0.25887000    0.15526076    0.09900000
opls_140-210    H    0.05113011    0.26829013    0.45062025    0.09890000
opls_140-211    H    0.73171025    0.78284022    0.45062025    0.09890000
opls_140-212    H    0.21716020    0.94887007    0.45062025    0.09890000
opls_140-213    H    0.26829014    0.05112993    0.54937975    0.09890000
opls_140-214    H    0.78284019    0.73171028    0.54937975    0.09890000
opls_140-215    H    0.94887024    0.21716019    0.54937975    0.09900000
Zn2+-216    Zn    0.52141982    0.52141992    0.50000000    0.21190000
Zn2+-217    Zn    0.47857992    0.00000000    0.50000000    0.21190000
Zn2+-218    Zn    0.99999990    0.47858008    0.50000000    0.21190000
