#======================================================================
# Crystal Data Generated By AuToFF
#----------------------------------------------------------------------

data_AuToFF_phase_1

_cell_length_a                         29.9550
_cell_length_b                         29.9550
_cell_length_c                         3.7330
_cell_angle_alpha                      90.00
_cell_angle_beta                       90.00
_cell_angle_gamma                      120.00
_symmetry_space_group_name_H-M_alt     'P 1'
_symmetry_space_group_IT_number        1

loop_
_space_group_symop_operation_xyz
   'x, y, z'

loop_
   _atom_site_label
   _atom_site_type_symbol
   _atom_site_fract_x
   _atom_site_fract_y
   _atom_site_fract_z
   _atom_site_charge
opls_238-0    N    0.19203989    0.10597997    0.66822931    -0.19120000
opls_750-1    N    0.14123003    0.08866003    0.70350924    -0.08210000
opls_238-2    N    0.47422997    0.23681982    0.44036968    -0.19120000
opls_750-3    N    0.52483019    0.25256006    0.41462898    -0.08220000
opls_288-4    N    0.28254024    0.94889019    0.58005893    0.30520000
opls_238-5    N    0.89402014    0.08605998    0.66822931    -0.19120000
opls_750-6    N    0.91133992    0.05257000    0.70350924    -0.08210000
opls_238-7    N    0.76318004    0.23740999    0.44036968    -0.19120000
opls_750-8    N    0.74743994    0.27226996    0.41462898    -0.08220000
opls_288-9    N    0.05111013    0.33365007    0.58005893    0.30520000
opls_238-10    N    0.91393997    0.80796005    0.66822931    -0.19120000
opls_750-11    N    0.94743005    0.85876996    0.70350924    -0.08210000
opls_238-12    N    0.76258999    0.52577020    0.44036968    -0.19120000
opls_750-13    N    0.72772988    0.47516999    0.41462898    -0.08220000
opls_288-14    N    0.66635016    0.71746013    0.58005893    0.30520000
opls_234-15    C    0.23053019    0.15693019    0.67763997    0.48010000
opls_700-16    C    0.28329004    0.16473998    0.60601125    -0.21640000
opls_145-17    C    0.29015017    0.12542003    0.46948031    -0.22090000
opls_166-18    C    0.33865999    0.13167017    0.41341013    0.22360000
opls_700-19    C    0.38226990    0.17938007    0.48439057    -0.22910000
opls_145-20    C    0.37533986    0.21884997    0.61840075    -0.22030000
opls_166-21    C    0.32672017    0.21235003    0.68222073    0.30940000
opls_234-22    C    0.43485981    0.18634990    0.41819984    0.47980000
opls_142-23    C    0.10935004    0.03945988    0.69878114    -0.02910000
opls_700-24    C    0.05416001    0.02020986    0.70315028    0.07180000
opls_145-25    C    0.03296003    0.05261009    0.70361907    -0.09500000
opls_142-26    C    0.55883003    0.30108986    0.43223949    -0.02910000
opls_700-27    C    0.61321006    0.31670020    0.42953121    0.07130000
opls_145-28    C    0.65046996    0.36905009    0.42937048    -0.09500000
opls_182-29    C    0.33184993    0.05444998    0.57240021    0.02050000
opls_136-30    C    0.32187017    0.00008018    0.39892044    -0.13410000
opls_135-31    C    0.23898025    0.95730017    0.70260916    -0.31100000
opls_135-32    C    0.31624021    0.93188018    0.76196089    -0.31590000
opls_135-33    C    0.64949019    0.74994015    0.37387892    -0.31100000
opls_234-34    C    0.84307015    0.07360016    0.67763997    0.48010000
opls_700-35    C    0.83525999    0.11855003    0.60601125    -0.21640000
opls_145-36    C    0.87457997    0.16472996    0.46948031    -0.22090000
opls_166-37    C    0.86832990    0.20698996    0.41341013    0.22360000
opls_700-38    C    0.82062010    0.20289001    0.48439057    -0.22910000
opls_145-39    C    0.78115001    0.15648997    0.61840075    -0.22030000
opls_166-40    C    0.78764998    0.11436990    0.68222073    0.30940000
opls_234-41    C    0.81365001    0.24850984    0.41819984    0.47980000
opls_142-42    C    0.96054003    0.06988993    0.69878114    -0.02890000
opls_700-43    C    0.97978982    0.03394985    0.70315028    0.07180000
opls_145-44    C    0.94739008    0.98034985    0.70361907    -0.09500000
opls_142-45    C    0.69891012    0.25774012    0.43223949    -0.02910000
opls_700-46    C    0.68329990    0.29650999    0.42953121    0.07130000
opls_145-47    C    0.63095005    0.28142006    0.42937048    -0.09500000
opls_182-48    C    0.94554989    0.27739990    0.57240021    0.02050000
opls_136-49    C    0.99991990    0.32179005    0.39892044    -0.13410000
opls_135-50    C    0.04270006    0.28167987    0.70260916    -0.31100000
opls_135-51    C    0.06811998    0.38436014    0.76196089    -0.31590000
opls_135-52    C    0.25006015    0.89955011    0.37387892    -0.31100000
opls_234-53    C    0.92640018    0.76947003    0.67763997    0.48020000
opls_700-54    C    0.88144997    0.71670999    0.60601125    -0.21640000
opls_145-55    C    0.83526986    0.70985001    0.46948031    -0.22090000
opls_166-56    C    0.79300978    0.66133987    0.41341013    0.22360000
opls_700-57    C    0.79711000    0.61772993    0.48439057    -0.22910000
opls_145-58    C    0.84351013    0.62466006    0.61840075    -0.22030000
opls_166-59    C    0.88563018    0.67328006    0.68222073    0.30940000
opls_234-60    C    0.75148999    0.56513988    0.41819984    0.47980000
opls_142-61    C    0.93010994    0.89065018    0.69878114    -0.02890000
opls_700-62    C    0.96604998    0.94583990    0.70315028    0.07180000
opls_145-63    C    0.01964989    0.96704005    0.70361907    -0.09500000
opls_142-64    C    0.74225986    0.44117002    0.43223949    -0.02910000
opls_700-65    C    0.70349024    0.38679019    0.42953121    0.07130000
opls_145-66    C    0.71857998    0.34952985    0.42937048    -0.09500000
opls_182-67    C    0.72260018    0.66815012    0.57240021    0.02050000
opls_136-68    C    0.67821013    0.67813015    0.39892044    -0.13410000
opls_135-69    C    0.71832003    0.76101996    0.70260916    -0.31090000
opls_135-70    C    0.61564001    0.68376006    0.76196089    -0.31580000
opls_135-71    C    0.10045019    0.35051012    0.37387892    -0.31100000
opls_236-72    O    0.22193976    0.19164984    0.74720868    -0.36120000
opls_236-73    O    0.44346009    0.15170002    0.34600054    -0.37030000
opls_167-74    O    0.32544021    0.25379012    0.82386017    -0.43120000
opls_179-75    O    0.34160003    0.08989010    0.28549960    -0.18470000
opls_236-76    O    0.80835020    0.03029012    0.74720868    -0.36120000
opls_236-77    O    0.84830003    0.29176013    0.34600054    -0.37040000
opls_167-78    O    0.74620993    0.07165003    0.82386017    -0.43100000
opls_179-79    O    0.91011009    0.25171008    0.28549960    -0.18470000
opls_236-80    O    0.96971004    0.77806003    0.74720868    -0.36120000
opls_236-81    O    0.70823988    0.55653985    0.34600054    -0.37040000
opls_167-82    O    0.92834986    0.67455985    0.82386017    -0.45800000
opls_179-83    O    0.74829007    0.65840021    0.28549960    -0.18470000
opls_910-84    H    0.20193012    0.07520992    0.62874900    0.21450000
opls_146-85    H    0.25521988    0.08654993    0.39991964    0.04400000
opls_146-86    H    0.41023000    0.25813986    0.67967051    0.04400000
opls_144-87    H    0.12460009    0.01141016    0.69121082    0.02600000
opls_146-88    H    0.05933019    0.09624008    0.70442004    0.04400000
opls_910-89    H    0.46524007    0.26817001    0.48264131    0.21450000
opls_144-90    H    0.54595997    0.33097986    0.44960086    0.02600000
opls_146-91    H    0.63817003    0.39943003    0.42909992    0.04400000
opls_168-92    H    0.36542005    0.28581991    0.86739084    0.28610000
opls_185-93    H    0.29625991    0.04776000    0.72777123    0.04010000
opls_185-94    H    0.36662003    0.07088987    0.75903027    0.04010000
opls_140-95    H    0.36049001    0.00128981    0.38757032    0.04830000
opls_140-96    H    0.30722008    0.99657001    0.11263059    0.04830000
opls_140-97    H    0.20894985    0.92167002    0.85207072    0.11420000
opls_140-98    H    0.22031980    0.96439991    0.45954996    0.11420000
opls_140-99    H    0.25495004    0.99215012    0.88825074    0.11420000
opls_140-100    H    0.34697017    0.93510008    0.56657916    0.11420000
opls_140-101    H    0.29173009    0.89014019    0.85291990    0.11420000
opls_140-102    H    0.33561007    0.95748019    0.00448969    0.11420000
opls_140-103    H    0.60600997    0.73254004    0.40106885    0.11420000
opls_140-104    H    0.65992006    0.75096013    0.07914010    0.11420000
opls_140-105    H    0.66983003    0.79082014    0.48594964    0.11420000
opls_910-106    H    0.92479008    0.12671986    0.62874900    0.21450000
opls_146-107    H    0.91344997    0.16866993    0.39991964    0.04400000
opls_146-108    H    0.74186012    0.15209012    0.67967051    0.04400000
opls_144-109    H    0.98858997    0.11318995    0.69121082    0.02600000
opls_146-110    H    0.90376002    0.96309006    0.70442004    0.04400000
opls_910-111    H    0.73182997    0.19707006    0.48264131    0.21450000
opls_144-112    H    0.66902004    0.21498015    0.44960086    0.02600000
opls_146-113    H    0.60057007    0.23872986    0.42909992    0.04400000
opls_168-114    H    0.71417997    0.07961016    0.86739084    0.28610000
opls_185-115    H    0.95224008    0.24850020    0.72777123    0.04010000
opls_185-116    H    0.92910995    0.29573017    0.75903027    0.04010000
opls_140-117    H    0.99870998    0.35919996    0.38757032    0.04830000
opls_140-118    H    0.00343021    0.31065011    0.11263059    0.04830000
opls_140-119    H    0.07833009    0.28729012    0.85207072    0.11420000
opls_140-120    H    0.03560007    0.25592991    0.45954996    0.11420000
opls_140-121    H    0.00784996    0.26278988    0.88825074    0.11420000
opls_140-122    H    0.06490021    0.41187019    0.56657916    0.11420000
opls_140-123    H    0.10985986    0.40158987    0.85291990    0.11420000
opls_140-124    H    0.04251987    0.37813004    0.00448969    0.11420000
opls_140-125    H    0.26746018    0.87347018    0.40106885    0.11420000
opls_140-126    H    0.24903985    0.90896002    0.07914010    0.11420000
opls_140-127    H    0.20917979    0.87900989    0.48594964    0.11420000
opls_910-128    H    0.87328014    0.79807022    0.62874900    0.21450000
opls_146-129    H    0.83133015    0.74478014    0.39991964    0.04400000
opls_146-130    H    0.84790988    0.58977002    0.67967051    0.04400000
opls_144-131    H    0.88680994    0.87539989    0.69121082    0.02600000
opls_146-132    H    0.03690979    0.94066986    0.70442004    0.04400000
opls_910-133    H    0.80292996    0.53475994    0.48264131    0.21450000
opls_144-134    H    0.78501999    0.45403999    0.44960086    0.02600000
opls_146-135    H    0.76126991    0.36183008    0.42909992    0.04400000
opls_168-136    H    0.92038996    0.63457996    0.86739084    0.28700000
opls_185-137    H    0.75150020    0.70374018    0.72777123    0.04010000
opls_185-138    H    0.70427002    0.63337996    0.75903027    0.04010000
opls_140-139    H    0.64079982    0.63950984    0.38757032    0.04830000
opls_140-140    H    0.68935004    0.69277987    0.11263059    0.04830000
opls_140-141    H    0.71271005    0.79104989    0.85207072    0.11420000
opls_140-142    H    0.74407011    0.77968020    0.45954996    0.11420000
opls_140-143    H    0.73721002    0.74504998    0.88825074    0.11420000
opls_140-144    H    0.58813014    0.65303011    0.56657916    0.11420000
opls_140-145    H    0.59841005    0.70826994    0.85291990    0.11420000
opls_140-146    H    0.62186993    0.66439016    0.00448969    0.11420000
opls_140-147    H    0.12653005    0.39399016    0.40106885    0.11420000
opls_140-148    H    0.09103976    0.34007985    0.07914010    0.11420000
opls_140-149    H    0.12098984    0.33016997    0.48594964    0.11420000
