#======================================================================
# Crystal Data Generated By AuToFF
#----------------------------------------------------------------------

data_AuToFF_phase_1

_cell_length_a                         21.3688
_cell_length_b                         21.3688
_cell_length_c                         6.6032
_cell_angle_alpha                      90.00
_cell_angle_beta                       90.00
_cell_angle_gamma                      120.00
_symmetry_space_group_name_H-M_alt     'P 1'
_symmetry_space_group_IT_number        1

loop_
_space_group_symop_operation_xyz
   'x, y, z'

loop_
   _atom_site_label
   _atom_site_type_symbol
   _atom_site_fract_x
   _atom_site_fract_y
   _atom_site_fract_z
   _atom_site_charge
opls_700-0    C    0.92888014    0.93912002    0.25000000    -0.11920000
opls_567-1    C    0.99015006    0.93104045    0.25000000    0.30280000
opls_700-2    C    0.86782994    0.86683991    0.25000000    -0.08740000
opls_567-3    C    0.89557991    0.81997004    0.25000000    0.31560000
opls_423-4    C    0.05463981    0.20503979    0.25000000    0.15810000
opls_700-5    C    0.78896999    0.19789992    0.25000000    0.01310000
opls_145-6    C    0.75877996    0.12211984    0.25000000    -0.12950000
opls_145-7    C    0.80304019    0.09204028    0.25000000    -0.13090000
opls_700-8    C    0.73773991    0.39460021    0.25000000    -0.13380000
opls_567-9    C    0.67613025    0.40225020    0.25000000    0.30720000
opls_700-10    C    0.79852009    0.46710026    0.25000000    -0.09250000
opls_567-11    C    0.77017012    0.51340004    0.25000000    0.15230000
opls_423-12    C    0.61385989    0.12806983    0.25000000    0.16030000
opls_700-13    C    0.87896989    0.13650010    0.25000000    0.01210000
opls_145-14    C    0.90920012    0.21222020    0.25000000    -0.13200000
opls_145-15    C    0.86498036    0.24246025    0.25000000    -0.13620000
opls_700-16    C    0.06087998    0.98976003    0.25000000    -0.11920000
opls_567-17    C    0.06896025    0.05911027    0.25000000    0.30280000
opls_700-18    C    0.13315989    0.00098995    0.25000000    -0.08740000
opls_567-19    C    0.18003004    0.07560986    0.25000000    0.31560000
opls_423-20    C    0.79496024    0.84960002    0.25000000    0.15810000
opls_700-21    C    0.80210034    0.59107032    0.25000000    0.01310000
opls_145-22    C    0.87787993    0.63666005    0.25000000    -0.12950000
opls_145-23    C    0.90796015    0.71100005    0.25000000    -0.13090000
opls_700-24    C    0.60540013    0.34313992    0.25000000    -0.13380000
opls_567-25    C    0.59775012    0.27387993    0.25000000    0.30720000
opls_700-26    C    0.53289996    0.33141989    0.25000000    -0.09250000
opls_567-27    C    0.48659991    0.25677027    0.25000000    0.15230000
opls_423-28    C    0.87192983    0.48578995    0.25000000    0.16030000
opls_700-29    C    0.86349988    0.74246998    0.25000000    0.01210000
opls_145-30    C    0.78778010    0.69698021    0.25000000    -0.13200000
opls_145-31    C    0.75754022    0.62252025    0.25000000    -0.13620000
opls_700-32    C    0.01023988    0.07111994    0.25000000    -0.11920000
opls_567-33    C    0.94088996    0.00984982    0.25000000    0.30280000
opls_700-34    C    0.99901017    0.13217014    0.25000000    -0.08740000
opls_567-35    C    0.92439005    0.10442010    0.25000000    0.31560000
opls_423-36    C    0.15039995    0.94536019    0.25000000    0.15810000
opls_700-37    C    0.40892995    0.21103031    0.25000000    0.01310000
opls_145-38    C    0.36334011    0.24122011    0.25000000    -0.12950000
opls_145-39    C    0.28899993    0.19696022    0.25000000    -0.13090000
opls_700-40    C    0.65685997    0.26225986    0.25000000    -0.13380000
opls_567-41    C    0.72612010    0.32386988    0.25000000    0.30720000
opls_700-42    C    0.66857995    0.20147985    0.25000000    -0.09250000
opls_567-43    C    0.74323023    0.22983024    0.25000000    0.15230000
opls_423-44    C    0.51421028    0.38614022    0.25000000    0.16030000
opls_700-45    C    0.25752977    0.12102992    0.25000000    0.01210000
opls_145-46    C    0.30302005    0.09080013    0.25000000    -0.13200000
opls_145-47    C    0.37748016    0.13502004    0.25000000    -0.13620000
opls_700-48    C    0.07111986    0.06087998    0.75000000    -0.11920000
opls_567-49    C    0.00985021    0.06896009    0.75000000    0.30280000
opls_700-50    C    0.13217006    0.13316009    0.75000000    -0.08740000
opls_567-51    C    0.10442009    0.18002996    0.75000000    0.31560000
opls_423-52    C    0.94536019    0.79496021    0.75000000    0.15810000
opls_700-53    C    0.21103001    0.80210008    0.75000000    0.01310000
opls_145-54    C    0.24122004    0.87788016    0.75000000    -0.12950000
opls_145-55    C    0.19696008    0.90796026    0.75000000    -0.13090000
opls_700-56    C    0.26226036    0.60540033    0.75000000    -0.13380000
opls_567-57    C    0.32387002    0.59775034    0.75000000    0.30720000
opls_700-58    C    0.20148019    0.53290028    0.75000000    -0.09250000
opls_567-59    C    0.22982988    0.48659996    0.75000000    0.15230000
opls_423-60    C    0.38614011    0.87193017    0.75000000    0.16030000
opls_700-61    C    0.12103038    0.86350044    0.75000000    0.01210000
opls_145-62    C    0.09080015    0.78778034    0.75000000    -0.13200000
opls_145-63    C    0.13502038    0.75754029    0.75000000    -0.13620000
opls_700-64    C    0.93912002    0.01023997    0.75000000    -0.11920000
opls_567-65    C    0.93104002    0.94089027    0.75000000    0.30280000
opls_700-66    C    0.86684011    0.99901005    0.75000000    -0.08740000
opls_567-67    C    0.81996996    0.92439014    0.75000000    0.31560000
opls_423-68    C    0.20503976    0.15039998    0.75000000    0.15810000
opls_700-69    C    0.19789993    0.40893022    0.75000000    0.01310000
opls_145-70    C    0.12212007    0.36333995    0.75000000    -0.12950000
opls_145-71    C    0.09203985    0.28899995    0.75000000    -0.13090000
opls_700-72    C    0.39459987    0.65686008    0.75000000    -0.13380000
opls_567-73    C    0.40224988    0.72612007    0.75000000    0.30720000
opls_700-74    C    0.46710004    0.66858011    0.75000000    -0.09250000
opls_567-75    C    0.51340036    0.74323027    0.75000000    0.15230000
opls_423-76    C    0.12807017    0.51421005    0.75000000    0.16030000
opls_700-77    C    0.13650012    0.25753002    0.75000000    0.01210000
opls_145-78    C    0.21221990    0.30301979    0.75000000    -0.13200000
opls_145-79    C    0.24246005    0.37748029    0.75000000    -0.13620000
opls_700-80    C    0.98976012    0.92888006    0.75000000    -0.11920000
opls_567-81    C    0.05911004    0.99015018    0.75000000    0.30280000
opls_700-82    C    0.00099010    0.86783040    0.75000000    -0.08740000
opls_567-83    C    0.07561022    0.89558044    0.75000000    0.31560000
opls_423-84    C    0.84960005    0.05463981    0.75000000    0.15810000
opls_700-85    C    0.59107032    0.78897023    0.75000000    0.01310000
opls_145-86    C    0.63665989    0.75877989    0.75000000    -0.12950000
opls_145-87    C    0.71100034    0.80304032    0.75000000    -0.13090000
opls_700-88    C    0.34314003    0.73774014    0.75000000    -0.13380000
opls_567-89    C    0.27387990    0.67613012    0.75000000    0.30720000
opls_700-90    C    0.33142005    0.79852015    0.75000000    -0.09250000
opls_567-91    C    0.25677004    0.77017030    0.75000000    0.15230000
opls_423-92    C    0.48578999    0.61386032    0.75000000    0.16030000
opls_700-93    C    0.74247023    0.87897008    0.75000000    0.01210000
opls_145-94    C    0.69698022    0.90920041    0.75000000    -0.13200000
opls_145-95    C    0.62251984    0.86497996    0.75000000    -0.13620000
opls_566-96    O    0.97009991    0.85960006    0.25000000    -0.11550000
opls_566-97    O    0.69573997    0.47356035    0.25000000    -0.11510000
opls_566-98    O    0.14039973    0.11049978    0.25000000    -0.11550000
opls_566-99    O    0.52644008    0.22218025    0.25000000    -0.11510000
opls_566-100    O    0.88949989    0.02990016    0.25000000    -0.11550000
opls_566-101    O    0.77781976    0.30425993    0.25000000    -0.11450000
opls_566-102    O    0.02990009    0.14039994    0.75000000    -0.11550000
opls_566-103    O    0.30426030    0.52644019    0.75000000    -0.11510000
opls_566-104    O    0.85960027    0.88950022    0.75000000    -0.11550000
opls_566-105    O    0.47356019    0.77782029    0.75000000    -0.11510000
opls_566-106    O    0.11050038    0.97010038    0.75000000    -0.11550000
opls_566-107    O    0.22218024    0.69574007    0.75000000    -0.11510000
opls_753-108    N    0.10250983    0.26440998    0.25000000    -0.30520000
opls_753-109    N    0.56786008    0.06785018    0.25000000    -0.33840000
opls_753-110    N    0.73558996    0.83809992    0.25000000    -0.30520000
opls_753-111    N    0.93215013    0.50001027    0.25000000    -0.33840000
opls_753-112    N    0.16190021    0.89749010    0.25000000    -0.30520000
opls_753-113    N    0.49999006    0.43214009    0.25000000    -0.33840000
opls_753-114    N    0.89749017    0.73559002    0.75000000    -0.30520000
opls_753-115    N    0.43214019    0.93215036    0.75000000    -0.33840000
opls_753-116    N    0.26441004    0.16190008    0.75000000    -0.30520000
opls_753-117    N    0.06785014    0.49999027    0.75000000    -0.33840000
opls_753-118    N    0.83809979    0.10250990    0.75000000    -0.30520000
opls_753-119    N    0.50000994    0.56785991    0.75000000    -0.33840000
opls_146-120    H    0.70044973    0.08655987    0.25000000    0.10480000
opls_146-121    H    0.77879986    0.03350009    0.25000000    0.10320000
opls_146-122    H    0.96757001    0.24780989    0.25000000    0.10310000
opls_146-123    H    0.88915021    0.30101016    0.25000000    0.10300000
opls_146-124    H    0.91344000    0.61389004    0.25000000    0.10480000
opls_146-125    H    0.96649985    0.74529988    0.25000000    0.10320000
opls_146-126    H    0.75218979    0.71975995    0.25000000    0.10310000
opls_146-127    H    0.69898974    0.58813990    0.25000000    0.10300000
opls_146-128    H    0.38611026    0.29955009    0.25000000    0.10480000
opls_146-129    H    0.25469982    0.22120003    0.25000000    0.10320000
opls_146-130    H    0.28024020    0.03243016    0.25000000    0.10310000
opls_146-131    H    0.41186005    0.11084993    0.25000000    0.10300000
opls_146-132    H    0.29955027    0.91344013    0.75000000    0.10480000
opls_146-133    H    0.22120041    0.96650045    0.75000000    0.10320000
opls_146-134    H    0.03242999    0.75219011    0.75000000    0.10310000
opls_146-135    H    0.11085006    0.69899038    0.75000000    0.10300000
opls_146-136    H    0.08656000    0.38610996    0.75000000    0.10480000
opls_146-137    H    0.03350015    0.25470012    0.75000000    0.10320000
opls_146-138    H    0.24781021    0.28024005    0.75000000    0.10310000
opls_146-139    H    0.30101026    0.41186010    0.75000000    0.10300000
opls_146-140    H    0.61388974    0.70044991    0.75000000    0.10480000
opls_146-141    H    0.74530018    0.77879997    0.75000000    0.10320000
opls_146-142    H    0.71976007    0.96757038    0.75000000    0.10310000
opls_146-143    H    0.58813995    0.88915007    0.75000000    0.10300000
