#======================================================================
# Crystal Data Generated By AuToFF
#----------------------------------------------------------------------

data_AuToFF_phase_1

_cell_length_a                         52.2000
_cell_length_b                         52.2000
_cell_length_c                         3.8000
_cell_angle_alpha                      90.00
_cell_angle_beta                       90.00
_cell_angle_gamma                      120.00
_symmetry_space_group_name_H-M_alt     'P 1'
_symmetry_space_group_IT_number        1

loop_
_space_group_symop_operation_xyz
   'x, y, z'

loop_
   _atom_site_label
   _atom_site_type_symbol
   _atom_site_fract_x
   _atom_site_fract_y
   _atom_site_fract_z
   _atom_site_charge
opls_166-0    C    0.91955004    0.94723992    0.98606053    0.19560000
opls_543-1    C    0.72863006    0.88840993    0.02061053    0.20860000
opls_716-2    C    0.74199999    0.91882987    0.06597105    -0.16270000
opls_716-3    C    0.71977007    0.92568994    0.05331053    -0.15910000
opls_145-4    C    0.82388005    0.93149994    0.78651053    -0.05650000
opls_145-5    C    0.79299989    0.91587985    0.78832105    -0.08410000
opls_145-6    C    0.94569998    0.00046011    0.96902105    -0.18950000
opls_700-7    C    0.97288998    0.00078993    0.97582105    0.02750000
opls_166-8    C    0.41390003    0.72072995    0.03347105    0.19710000
opls_543-9    C    0.63945009    0.76894002    0.08877105    0.24040000
opls_543-10    C    0.60488993    0.77964002    0.06862105    0.20830000
opls_716-11    C    0.59155004    0.74964988    0.15128947    -0.15260000
opls_716-12    C    0.61378993    0.74276991    0.16147105    -0.15710000
opls_145-13    C    0.50942986    0.73531988    0.84068947    -0.05610000
opls_145-14    C    0.54031989    0.75088997    0.83657105    -0.08330000
opls_145-15    C    0.38757989    0.66750998    0.00825000    -0.18950000
opls_700-16    C    0.36040998    0.66724984    0.02005000    0.02430000
opls_166-17    C    0.41387007    0.69447002    0.01037895    0.20200000
opls_507-18    C    0.63943006    0.87159001    0.93692105    0.25370000
opls_507-19    C    0.60485999    0.82635982    0.96265000    0.21370000
opls_716-20    C    0.59148002    0.84299989    0.88235000    -0.17220000
opls_716-21    C    0.61371987    0.87209989    0.86862105    -0.15840000
opls_145-22    C    0.50950992    0.77531985    0.19947895    -0.05610000
opls_145-23    C    0.54040993    0.79060990    0.20143947    -0.08330000
opls_145-24    C    0.38764989    0.72146988    0.03575000    -0.18950000
opls_700-25    C    0.36044994    0.69459987    0.02411053    0.02440000
opls_166-26    C    0.91948997    0.97346998    0.96957895    0.19650000
opls_507-27    C    0.69398986    0.79594983    0.00920000    0.25110000
opls_507-28    C    0.72858005    0.84118998    0.98501053    0.21400000
opls_716-29    C    0.74184988    0.82407984    0.93707895    -0.16270000
opls_716-30    C    0.71961991    0.79499997    0.95551053    -0.15660000
opls_145-31    C    0.82426001    0.89353994    0.18900000    -0.05730000
opls_145-32    C    0.79337007    0.87827002    0.19712105    -0.08330000
opls_145-33    C    0.94582996    0.94657984    0.98566053    -0.18940000
opls_142-34    C    0.66673985    0.89723985    0.96232895    -0.19860000
opls_142-35    C    0.66672000    0.77055992    0.05815000    -0.19870000
opls_145-36    C    0.83950996    0.92023984    0.98526053    -0.18020000
opls_700-37    C    0.58949996    0.79530988    0.01666053    -0.05160000
opls_145-38    C    0.49400995    0.74759001    0.02057895    -0.20050000
opls_700-39    C    0.55628998    0.77870985    0.01841053    0.07490000
opls_543-40    C    0.69405995    0.89910993    0.00000000    0.24070000
opls_700-41    C    0.74399992    0.87248988    0.00000000    -0.06990000
opls_700-42    C    0.77723001    0.88909987    0.00000000    0.07500000
opls_700-43    C    0.97284005    0.97362992    0.97582105    0.02760000
opls_166-44    C    0.05275997    0.97230997    0.98606053    0.19560000
opls_507-45    C    0.11159007    0.84021999    0.02061053    0.21400000
opls_716-46    C    0.08117007    0.82317002    0.06597105    -0.16270000
opls_716-47    C    0.07430991    0.79407997    0.05331053    -0.15860000
opls_145-48    C    0.06849993    0.89237993    0.78651053    -0.05650000
opls_145-49    C    0.08411994    0.87711996    0.78832105    -0.08410000
opls_145-50    C    0.99953992    0.94523999    0.96902105    -0.18950000
opls_700-51    C    0.99920988    0.97209983    0.97582105    0.02750000
opls_166-52    C    0.27927005    0.69316999    0.03347105    0.19710000
opls_507-53    C    0.23105991    0.87050986    0.08877105    0.25090000
opls_507-54    C    0.22036007    0.82525002    0.06862105    0.21370000
opls_716-55    C    0.25034992    0.84189983    0.15128947    -0.16510000
opls_716-56    C    0.25722990    0.87101996    0.16147105    -0.15710000
opls_145-57    C    0.26468002    0.77410985    0.84068947    -0.05610000
opls_145-58    C    0.24911001    0.78942998    0.83657105    -0.08330000
opls_145-59    C    0.33248991    0.72006987    0.00825000    -0.18950000
opls_700-60    C    0.33274994    0.69316004    0.02005000    0.02430000
opls_166-61    C    0.30552999    0.71939983    0.01037895    0.20190000
opls_543-62    C    0.12841002    0.76783996    0.93692105    0.24320000
opls_543-63    C    0.17364000    0.77849992    0.96265000    0.20830000
opls_716-64    C    0.15699992    0.74847992    0.88235000    -0.17220000
opls_716-65    C    0.12789996    0.74161985    0.86862105    -0.15840000
opls_145-66    C    0.22468003    0.73418995    0.19947895    -0.05610000
opls_145-67    C    0.20938997    0.74979986    0.20143947    -0.08330000
opls_145-68    C    0.27852997    0.66617986    0.03575000    -0.18950000
opls_700-69    C    0.30539993    0.66585004    0.02411053    0.02440000
opls_166-70    C    0.02652991    0.94601997    0.96957895    0.19650000
opls_543-71    C    0.20405005    0.89803995    0.00920000    0.24050000
opls_543-72    C    0.15880991    0.88738994    0.98501053    0.20860000
opls_716-73    C    0.17591998    0.91776984    0.93707895    -0.16270000
opls_716-74    C    0.20500002    0.92461996    0.95551053    -0.15660000
opls_145-75    C    0.10645998    0.93071996    0.18900000    -0.05730000
opls_145-76    C    0.12173001    0.91509988    0.19712105    -0.08330000
opls_145-77    C    0.05341996    0.99924989    0.98566053    -0.18950000
opls_142-78    C    0.10275991    0.76949989    0.96232895    -0.19860000
opls_142-79    C    0.22943992    0.89615991    0.05815000    -0.19870000
opls_145-80    C    0.07976002    0.91926985    0.98526053    -0.18020000
opls_700-81    C    0.20468997    0.79418991    0.01666053    -0.05160000
opls_145-82    C    0.25241002    0.74642004    0.02057895    -0.20050000
opls_700-83    C    0.22128996    0.77757992    0.01841053    0.07490000
opls_507-84    C    0.10088993    0.79494998    0.00000000    0.25110000
opls_700-85    C    0.12750995    0.87150993    0.00000000    -0.06990000
opls_700-86    C    0.11090000    0.88812988    0.00000000    0.07500000
opls_700-87    C    0.02636987    0.99920985    0.97582105    0.02830000
opls_166-88    C    0.02768999    0.08045010    0.98606053    0.19560000
opls_543-89    C    0.15977995    0.27136987    0.02061053    0.20860000
opls_716-90    C    0.17683002    0.25799990    0.06597105    -0.16270000
opls_716-91    C    0.20591992    0.28022987    0.05331053    -0.15910000
opls_145-92    C    0.10761992    0.17611991    0.78651053    -0.05650000
opls_145-93    C    0.12288006    0.20699996    0.78832105    -0.08410000
opls_145-94    C    0.05475991    0.05429990    0.96902105    -0.18950000
opls_700-95    C    0.02790003    0.02711002    0.97582105    0.02750000
opls_166-96    C    0.30683000    0.58609984    0.03347105    0.19710000
opls_543-97    C    0.12948989    0.36054990    0.08877105    0.24040000
opls_543-98    C    0.17475000    0.39510995    0.06862105    0.20840000
opls_716-99    C    0.15809994    0.40845006    0.15128947    -0.15260000
opls_716-100    C    0.12897986    0.38620991    0.16147105    -0.15700000
opls_145-101    C    0.22589001    0.49057006    0.84068947    -0.05610000
opls_145-102    C    0.21057010    0.45968005    0.83657105    -0.08330000
opls_145-103    C    0.27992989    0.61241993    0.00825000    -0.18950000
opls_700-104    C    0.30683997    0.63958990    0.02005000    0.02520000
opls_166-105    C    0.28060002    0.58612992    0.01037895    0.20200000
opls_507-106    C    0.23216011    0.36057003    0.93692105    0.25370000
opls_507-107    C    0.22150010    0.39514004    0.96265000    0.21360000
opls_716-108    C    0.25151994    0.40851996    0.88235000    -0.17210000
opls_716-109    C    0.25838006    0.38628004    0.86862105    -0.15830000
opls_145-110    C    0.26580993    0.49048998    0.19947895    -0.05610000
opls_145-111    C    0.25019999    0.45959002    0.20143947    -0.08330000
opls_145-112    C    0.33382003    0.61235003    0.03575000    -0.18950000
opls_700-113    C    0.33415003    0.63954986    0.02411053    0.02440000
opls_166-114    C    0.05397993    0.08051005    0.96957895    0.19650000
opls_507-115    C    0.10195998    0.30600999    0.00920000    0.25100000
opls_507-116    C    0.11261004    0.27142008    0.98501053    0.21400000
opls_716-117    C    0.08222992    0.25814987    0.93707895    -0.16270000
opls_716-118    C    0.07538007    0.28038007    0.95551053    -0.15660000
opls_145-119    C    0.06927990    0.17573988    0.18900000    -0.05730000
opls_145-120    C    0.08490000    0.20662988    0.19712105    -0.08330000
opls_145-121    C    0.00074997    0.05417005    0.98566053    -0.18950000
opls_142-122    C    0.23049994    0.33326004    0.96232895    -0.19860000
opls_142-123    C    0.10383997    0.33327995    0.05815000    -0.19860000
opls_145-124    C    0.08073010    0.16049009    0.98526053    -0.18010000
opls_700-125    C    0.20580996    0.41049999    0.01666053    -0.05160000
opls_145-126    C    0.25358003    0.50598995    0.02057895    -0.20050000
opls_700-127    C    0.22241995    0.44371001    0.01841053    0.07490000
opls_543-128    C    0.20505001    0.30593987    0.00000000    0.24080000
opls_700-129    C    0.12849002    0.25599996    0.00000000    -0.06990000
opls_700-130    C    0.11187007    0.22277003    0.00000000    0.07510000
opls_700-131    C    0.00078997    0.02716001    0.97582105    0.02830000
opls_542-132    N    0.69904998    0.87621987    0.98608947    -0.26990000
opls_542-133    N    0.63443994    0.79158984    0.03275000    -0.26300000
opls_542-134    N    0.69903994    0.82385996    0.02666053    -0.28570000
opls_542-135    N    0.63443993    0.84394998    0.00000000    -0.25370000
opls_542-136    N    0.12377995    0.82283002    0.98608947    -0.28900000
opls_542-137    N    0.20841002    0.84284992    0.03275000    -0.29110000
opls_542-138    N    0.17613999    0.87517998    0.02666053    -0.26270000
opls_542-139    N    0.15604998    0.79049000    0.00000000    -0.27620000
opls_542-140    N    0.17716996    0.30094988    0.98608947    -0.26990000
opls_542-141    N    0.15714993    0.36556002    0.03275000    -0.26300000
opls_542-142    N    0.12482007    0.30096006    0.02666053    -0.28580000
opls_542-143    N    0.20951009    0.36556002    0.00000000    -0.25360000
opls_167-144    O    0.44211000    0.74512996    0.04852895    -0.30080000
opls_167-145    O    0.89131003    0.96965991    0.95772895    -0.30080000
opls_167-146    O    0.89141986    0.92279987    0.00000000    -0.30080000
opls_167-147    O    0.44205000    0.69820997    0.00000000    -0.30080000
opls_167-148    O    0.25487000    0.69697984    0.04852895    -0.30090000
opls_167-149    O    0.03033985    0.92164981    0.95772895    -0.30080000
opls_167-150    O    0.07720005    0.96862002    0.00000000    -0.30080000
opls_167-151    O    0.30178987    0.74383988    0.00000000    -0.30080000
opls_167-152    O    0.30302008    0.55788998    0.04852895    -0.30080000
opls_167-153    O    0.07835001    0.10869005    0.95772895    -0.30080000
opls_167-154    O    0.03137998    0.10857989    0.00000000    -0.30080000
opls_167-155    O    0.25616002    0.55794992    0.00000000    -0.30080000
MOF2_B_2-156    B    0.87375995    0.93739997    0.98045000    0.65390000
MOF2_B_2-157    B    0.45970986    0.73046991    0.02151053    0.65870000
MOF2_B_2-158    B    0.06259985    0.93635986    0.98045000    0.65410000
MOF2_B_2-159    B    0.26952996    0.72924000    0.02151053    0.65840000
MOF2_B_2-160    B    0.06363990    0.12623995    0.98045000    0.65400000
MOF2_B_2-161    B    0.27075988    0.54028987    0.02151053    0.65840000
opls_146-162    H    0.38777004    0.64577993    0.99713947    0.04770000
opls_146-163    H    0.38824994    0.74358992    0.04691053    0.04770000
opls_146-164    H    0.21501007    0.71195002    0.33961053    0.04720000
opls_146-165    H    0.18747992    0.74053992    0.34805000    0.04770000
opls_146-166    H    0.28695002    0.78371996    0.70141053    0.04770000
opls_146-167    H    0.25844006    0.81131996    0.68918947    0.04770000
opls_547-168    H    0.76696991    0.93262987    0.10368947    0.04780000
opls_547-169    H    0.72522987    0.94960993    0.08511053    0.04770000
opls_146-170    H    0.83631003    0.95285991    0.62878947    0.04770000
opls_146-171    H    0.78021001    0.92405986    0.62481053    0.04770000
opls_146-172    H    0.94544000    0.02216007    0.96316053    0.04770000
opls_547-173    H    0.56663000    0.73618988    0.19496053    0.04770000
opls_547-174    H    0.61471999    0.72173998    0.21326053    0.04770000
opls_547-175    H    0.56651006    0.83155000    0.84272895    0.04770000
opls_547-176    H    0.60821999    0.89023002    0.80960000    0.04720000
opls_547-177    H    0.76674996    0.83519991    0.89345000    0.04770000
opls_547-178    H    0.71873998    0.77277995    0.93641053    0.04770000
opls_146-179    H    0.83703996    0.88478987    0.34268947    0.04770000
opls_146-180    H    0.78095002    0.85721001    0.36010000    0.04770000
opls_146-181    H    0.94528996    0.92448989    0.99318947    0.04770000
opls_144-182    H    0.66821009    0.91977000    0.95281053    0.04720000
opls_144-183    H    0.66823989    0.74954990    0.07271053    0.04770000
opls_146-184    H    0.35421987    0.74198993    0.99713947    0.04780000
opls_146-185    H    0.25641006    0.64465996    0.04691053    0.04770000
opls_146-186    H    0.28803989    0.50304989    0.33961053    0.04770000
opls_146-187    H    0.25945997    0.44693986    0.34805000    0.04770000
opls_146-188    H    0.21627992    0.50322000    0.70141053    0.04770000
opls_146-189    H    0.18867988    0.44711992    0.68918947    0.04770000
opls_547-190    H    0.06736993    0.83433986    0.10368947    0.04770000
opls_547-191    H    0.05037994    0.77562003    0.08511053    0.04770000
opls_146-192    H    0.04713995    0.88345002    0.62878947    0.04770000
opls_146-193    H    0.07592998    0.85614003    0.62481053    0.04770000
opls_146-194    H    0.97783994    0.92327989    0.96316053    0.04770000
opls_547-195    H    0.26381003    0.83043003    0.19496053    0.04720000
opls_547-196    H    0.27825984    0.89297984    0.21326053    0.04770000
opls_547-197    H    0.16844991    0.73495997    0.84272895    0.04770000
opls_547-198    H    0.10977002    0.71798986    0.80960000    0.04720000
opls_547-199    H    0.16479987    0.93154993    0.89345000    0.04770000
opls_547-200    H    0.22722005    0.94596002    0.93641053    0.04770000
opls_146-201    H    0.11520997    0.95224982    0.34268947    0.04770000
opls_146-202    H    0.14278992    0.92374000    0.36010000    0.04770000
opls_146-203    H    0.07550989    0.02080983    0.99318947    0.04770000
opls_144-204    H    0.08022990    0.74844984    0.95281053    0.04770000
opls_144-205    H    0.25044990    0.91868984    0.07271053    0.04770000
opls_146-206    H    0.25800998    0.61222991    0.99713947    0.04770000
opls_146-207    H    0.35533989    0.61174990    0.04691053    0.04770000
opls_146-208    H    0.49694994    0.78498991    0.33961053    0.04780000
opls_146-209    H    0.55306000    0.81252001    0.34805000    0.04770000
opls_146-210    H    0.49676995    0.71304986    0.70141053    0.04770000
opls_146-211    H    0.55287995    0.74155990    0.68918947    0.04770000
opls_547-212    H    0.16566004    0.23303005    0.10368947    0.04770000
opls_547-213    H    0.22438004    0.27477004    0.08511053    0.04770000
opls_146-214    H    0.11655002    0.16369007    0.62878947    0.04770000
opls_146-215    H    0.14385991    0.21978993    0.62481053    0.04770000
opls_146-216    H    0.07672006    0.05456004    0.96316053    0.04770000
opls_547-217    H    0.16957001    0.43336991    0.19496053    0.04770000
opls_547-218    H    0.10702006    0.38527996    0.21326053    0.04770000
opls_547-219    H    0.26504003    0.43349003    0.84272895    0.04770000
opls_547-220    H    0.28200988    0.39177990    0.80960000    0.04720000
opls_547-221    H    0.06845006    0.23324993    0.89345000    0.04770000
opls_547-222    H    0.05403998    0.28126003    0.93641053    0.04780000
opls_146-223    H    0.04774997    0.16296009    0.34268947    0.04770000
opls_146-224    H    0.07626005    0.21904999    0.36010000    0.04770000
opls_146-225    H    0.97919007    0.05471002    0.99318947    0.04770000
opls_144-226    H    0.25154993    0.33178990    0.95281053    0.04770000
opls_144-227    H    0.08131009    0.33176004    0.07271053    0.04770000
opls_545-228    H    0.17204994    0.85237995    0.06787895    0.27710000
opls_545-229    H    0.16586994    0.81423989    0.06850000    0.27960000
opls_545-230    H    0.68489000    0.85191984    0.95496053    0.27950000
opls_545-231    H    0.65318999    0.81397997    0.97272105    0.27720000
opls_545-232    H    0.16079009    0.34681007    0.97272105    0.27710000
opls_545-233    H    0.16703010    0.31511001    0.95496053    0.27950000
