#======================================================================
# Crystal Data Generated By AuToFF
#----------------------------------------------------------------------

data_AuToFF_phase_1

_cell_length_a                         14.7445
_cell_length_b                         14.7445
_cell_length_c                         6.5257
_cell_angle_alpha                      90.00
_cell_angle_beta                       90.00
_cell_angle_gamma                      120.00
_symmetry_space_group_name_H-M_alt     'P 1'
_symmetry_space_group_IT_number        1

loop_
_space_group_symop_operation_xyz
   'x, y, z'

loop_
   _atom_site_label
   _atom_site_type_symbol
   _atom_site_fract_x
   _atom_site_fract_y
   _atom_site_fract_z
   _atom_site_charge
opls_523-0    C    0.44864028    0.06043021    0.24983067    -0.16660000
opls_145-1    C    0.55752979    0.95260985    0.25014941    -0.07060000
opls_523-2    C    0.93957024    0.38821030    0.24983067    -0.16660000
opls_145-3    C    0.04738997    0.60492000    0.25014941    -0.07060000
opls_523-4    C    0.61178987    0.55136027    0.24983067    -0.16660000
opls_145-5    C    0.39508024    0.44247015    0.25014941    -0.07060000
opls_523-6    C    0.06042960    0.44863973    0.75018006    -0.16660000
opls_145-7    C    0.95261009    0.55752985    0.74985059    -0.07060000
opls_523-8    C    0.38821007    0.93956979    0.75018006    -0.16660000
opls_145-9    C    0.60491994    0.04739015    0.74985059    -0.07060000
opls_523-10    C    0.55135994    0.61178970    0.75018006    -0.16660000
opls_145-11    C    0.44246997    0.39508000    0.74985059    -0.07060000
opls_523-12    C    0.55135972    0.93956979    0.75018006    -0.16660000
opls_145-13    C    0.44247021    0.04739015    0.74985059    -0.07060000
opls_523-14    C    0.06042976    0.61178970    0.75018006    -0.16660000
opls_145-15    C    0.95261003    0.39508000    0.74985059    -0.07060000
opls_523-16    C    0.38821013    0.44863973    0.75018006    -0.16660000
opls_145-17    C    0.60491976    0.55752985    0.74985059    -0.07060000
opls_523-18    C    0.93957040    0.55136027    0.24983067    -0.16660000
opls_145-19    C    0.04738991    0.44247015    0.25014941    -0.07060000
opls_523-20    C    0.61178993    0.06043021    0.24983067    -0.16660000
opls_145-21    C    0.39508006    0.95260985    0.25014941    -0.07060000
opls_523-22    C    0.44864006    0.38821030    0.24983067    -0.16660000
opls_145-23    C    0.55753003    0.60492000    0.25014941    -0.07060000
opls_700-24    C    0.55769000    0.11538001    0.24968969    0.00430000
opls_700-25    C    0.88462021    0.44231039    0.24968969    0.00430000
opls_700-26    C    0.55769017    0.44231039    0.24968969    0.00430000
opls_700-27    C    0.11538018    0.55769040    0.75031031    0.00430000
opls_700-28    C    0.44231000    0.88461999    0.75031031    0.00430000
opls_700-29    C    0.44231022    0.55769040    0.75031031    0.00430000
opls_531-30    C    0.76957038    0.38479033    0.24945063    0.36880000
opls_531-31    C    0.61521995    0.38479033    0.24945063    0.36880000
opls_531-32    C    0.61521990    0.23043031    0.24945063    0.36880000
opls_531-33    C    0.38478998    0.76957047    0.75054937    0.36880000
opls_531-34    C    0.38478989    0.61521985    0.75054937    0.36880000
opls_531-35    C    0.23042996    0.61521985    0.75054937    0.36880000
opls_145-36    C    0.44831002    0.89662005    0.25033943    -0.23580000
opls_145-37    C    0.10339017    0.55168998    0.25033943    -0.23580000
opls_145-38    C    0.44830998    0.55168998    0.25033943    -0.23580000
opls_145-39    C    0.89662000    0.44831002    0.74966057    -0.23580000
opls_145-40    C    0.55168998    0.10337995    0.74966057    -0.23580000
opls_145-41    C    0.55169002    0.44831002    0.74966057    -0.23580000
opls_146-42    H    0.60001009    0.91032030    0.25023982    0.12040000
opls_526-43    H    0.40741047    0.10375038    0.24964985    0.12110000
opls_146-44    H    0.08968012    0.68969020    0.25023982    0.12040000
opls_526-45    H    0.89625003    0.30366016    0.24964985    0.12110000
opls_146-46    H    0.31031018    0.39999029    0.25023982    0.12040000
opls_526-47    H    0.69633988    0.59259024    0.24964985    0.12110000
opls_146-48    H    0.91031989    0.60000971    0.74976018    0.12040000
opls_526-49    H    0.10375981    0.40740976    0.75035015    0.12280000
opls_146-50    H    0.68968980    0.08967970    0.74976018    0.12040000
opls_526-51    H    0.30366049    0.89625040    0.75035015    0.12110000
opls_146-52    H    0.39998992    0.31030980    0.74976018    0.12040000
opls_526-53    H    0.59258987    0.69633984    0.75035015    0.12110000
opls_146-54    H    0.39998991    0.08967970    0.74976018    0.12040000
opls_526-55    H    0.59258992    0.89625040    0.75035015    0.12100000
opls_146-56    H    0.91031988    0.31030980    0.74976018    0.12040000
opls_526-57    H    0.10376014    0.69633984    0.75035015    0.12110000
opls_146-58    H    0.68968982    0.60000971    0.74976018    0.12040000
opls_526-59    H    0.30366012    0.40740976    0.75035015    0.12110000
opls_146-60    H    0.08968011    0.39999029    0.25023982    0.12040000
opls_526-61    H    0.89625036    0.59259024    0.24964985    0.12110000
opls_146-62    H    0.31031020    0.91032030    0.25023982    0.12040000
opls_526-63    H    0.69633991    0.10375038    0.24964985    0.12110000
opls_146-64    H    0.60001008    0.68969020    0.25023982    0.12040000
opls_526-65    H    0.40741013    0.30366016    0.24964985    0.12110000
opls_180-66    O    0.44054002    0.72027025    0.25059994    -0.57040000
opls_180-67    O    0.27973023    0.72027025    0.25059994    -0.57060000
opls_180-68    O    0.27973015    0.55946029    0.25059994    -0.57040000
opls_180-69    O    0.72026985    0.44053971    0.74940006    -0.57050000
opls_180-70    O    0.72026977    0.27972975    0.74940006    -0.57040000
opls_180-71    O    0.55945998    0.27972975    0.74940006    -0.57040000
opls_520-72    N    0.72002003    0.44004007    0.24943071    -0.31920000
opls_520-73    N    0.55996034    0.27998036    0.24943071    -0.31920000
opls_520-74    N    0.72002002    0.27998036    0.24943071    -0.31930000
opls_520-75    N    0.44004005    0.72002042    0.75058001    -0.31920000
opls_520-76    N    0.27997997    0.55995993    0.75058001    -0.31920000
opls_520-77    N    0.27998037    0.72002042    0.75058001    -0.31920000
MOF2_B_2-78    B    0.38796043    0.77593035    0.25056009    0.74350000
MOF2_B_2-79    B    0.22408045    0.61204031    0.25056009    0.74350000
MOF2_B_2-80    B    0.38795986    0.61204031    0.25056009    0.74350000
MOF2_B_2-81    B    0.77591955    0.38795969    0.74945063    0.74350000
MOF2_B_2-82    B    0.61203957    0.22406965    0.74945063    0.74350000
MOF2_B_2-83    B    0.61204014    0.38795969    0.74945063    0.74350000
