#======================================================================
# Crystal Data Generated By AuToFF
#----------------------------------------------------------------------

data_AuToFF_phase_1

_cell_length_a                         36.1071
_cell_length_b                         42.1182
_cell_length_c                         4.0795
_cell_angle_alpha                      90.00
_cell_angle_beta                       90.00
_cell_angle_gamma                      90.00
_symmetry_space_group_name_H-M_alt     'P 1'
_symmetry_space_group_IT_number        1

loop_
_space_group_symop_operation_xyz
   'x, y, z'

loop_
   _atom_site_label
   _atom_site_type_symbol
   _atom_site_fract_x
   _atom_site_fract_y
   _atom_site_fract_z
   _atom_site_charge
opls_594-0    C    0.52757989    0.96278996    0.59985047    0.10290000
opls_595-1    C    0.48244999    0.93131995    0.43787964    0.00360000
opls_593-2    C    0.43760008    0.97003006    0.27363893    -0.17250000
opls_592-3    C    0.41267008    0.94534999    0.20420885    -0.13380000
opls_700-4    C    0.42263987    0.91331989    0.25796053    0.06750000
opls_590-5    C    0.45863999    0.90610995    0.36801079    -0.17710000
opls_700-6    C    0.39430001    0.88807997    0.23295012    0.06280000
opls_145-7    C    0.35981012    0.89239996    0.38517956    -0.12060000
opls_145-8    C    0.33342002    0.86825007    0.38191935    -0.12210000
opls_700-9    C    0.34076013    0.83940007    0.22342934    0.06020000
opls_145-10    C    0.37501987    0.83511997    0.06569923    -0.13300000
opls_145-11    C    0.40177998    0.85922998    0.07302120    -0.13320000
opls_142-12    C    0.31251000    0.81413997    0.23543081    0.07000000
opls_145-13    C    0.28872992    0.76299011    0.05254075    0.18640000
opls_145-14    C    0.25312002    0.76568989    0.19076112    -0.16950000
opls_145-15    C    0.22910009    0.73973009    0.19182988    -0.16540000
opls_145-16    C    0.23957006    0.71083000    0.05235936    0.18580000
opls_145-17    C    0.27465014    0.70823991    0.90417943    -0.18010000
opls_145-18    C    0.29888997    0.73428993    0.90423091    -0.17230000
opls_142-19    C    0.21697007    0.65634999    0.96163010    0.06840000
opls_700-20    C    0.81272991    0.36703990    0.02422111    0.06640000
opls_145-21    C    0.84483993    0.35820999    0.19622993    -0.12060000
opls_145-22    C    0.87272005    0.38033012    0.25782081    -0.12050000
opls_700-23    C    0.86909998    0.41182007    0.15027087    0.06140000
opls_145-24    C    0.83688997    0.42082995    0.98075009    -0.13120000
opls_145-25    C    0.80899989    0.39854006    0.91639907    -0.13350000
opls_700-26    C    0.89891988    0.43500007    0.22043878    0.06880000
opls_592-27    C    0.93640004    0.42614001    0.17864934    -0.13410000
opls_593-28    C    0.96516004    0.44686003    0.26670916    -0.17100000
opls_594-29    C    0.95663014    0.47653010    0.39649957    0.10320000
opls_595-30    C    0.91990993    0.48513992    0.43305062    0.00360000
opls_590-31    C    0.89050990    0.46531998    0.34624096    -0.17010000
opls_594-32    C    0.47242011    0.03721004    0.59985047    0.10300000
opls_595-33    C    0.51755001    0.06868005    0.43787964    0.00360000
opls_593-34    C    0.56239992    0.02996994    0.27363893    -0.17250000
opls_592-35    C    0.58732992    0.05465001    0.20420885    -0.13380000
opls_700-36    C    0.57736013    0.08668011    0.25796053    0.06750000
opls_590-37    C    0.54136001    0.09389005    0.36801079    -0.17720000
opls_700-38    C    0.60569999    0.11192003    0.23295012    0.06280000
opls_145-39    C    0.64018988    0.10760004    0.38517956    -0.12060000
opls_145-40    C    0.66657998    0.13174993    0.38191935    -0.12210000
opls_700-41    C    0.65923987    0.16059993    0.22342934    0.06020000
opls_145-42    C    0.62498013    0.16488003    0.06569923    -0.13300000
opls_145-43    C    0.59822002    0.14077002    0.07302120    -0.13320000
opls_142-44    C    0.68749000    0.18586003    0.23543081    0.07000000
opls_145-45    C    0.71127008    0.23700989    0.05254075    0.18640000
opls_145-46    C    0.74687998    0.23431011    0.19076112    -0.16950000
opls_145-47    C    0.77089991    0.26026991    0.19182988    -0.16540000
opls_145-48    C    0.76042994    0.28917000    0.05235936    0.18570000
opls_145-49    C    0.72534986    0.29176009    0.90417943    -0.18010000
opls_145-50    C    0.70111003    0.26571007    0.90423091    -0.17240000
opls_142-51    C    0.78302993    0.34365001    0.96163010    0.06840000
opls_700-52    C    0.18727009    0.63296010    0.02422111    0.06640000
opls_145-53    C    0.15516007    0.64179001    0.19622993    -0.12060000
opls_145-54    C    0.12727995    0.61966988    0.25782081    -0.12050000
opls_700-55    C    0.13090002    0.58817993    0.15027087    0.06140000
opls_145-56    C    0.16311003    0.57917005    0.98075009    -0.13120000
opls_145-57    C    0.19100011    0.60145994    0.91639907    -0.13350000
opls_700-58    C    0.10108012    0.56499993    0.22043878    0.06870000
opls_592-59    C    0.06359996    0.57385999    0.17864934    -0.13410000
opls_593-60    C    0.03483996    0.55313997    0.26670916    -0.17100000
opls_594-61    C    0.04336986    0.52346990    0.39649957    0.10320000
opls_595-62    C    0.08009007    0.51486008    0.43305062    0.00360000
opls_590-63    C    0.10949010    0.53468002    0.34624096    -0.17010000
opls_594-64    C    0.47242011    0.96278996    0.40014953    0.10290000
opls_595-65    C    0.51755001    0.93131995    0.56212036    0.00360000
opls_593-66    C    0.56239992    0.97003006    0.72636107    -0.17250000
opls_592-67    C    0.58732992    0.94534999    0.79579115    -0.13380000
opls_700-68    C    0.57736013    0.91331989    0.74203947    0.06750000
opls_590-69    C    0.54136001    0.90610995    0.63198921    -0.17720000
opls_700-70    C    0.60569999    0.88807997    0.76704988    0.06280000
opls_145-71    C    0.64018988    0.89239996    0.61482044    -0.12060000
opls_145-72    C    0.66657998    0.86825007    0.61808065    -0.12210000
opls_700-73    C    0.65923987    0.83940007    0.77657066    0.06020000
opls_145-74    C    0.62498013    0.83511997    0.93430077    -0.13300000
opls_145-75    C    0.59822002    0.85922998    0.92697880    -0.13320000
opls_142-76    C    0.68749000    0.81413997    0.76456919    0.07000000
opls_145-77    C    0.71127008    0.76299011    0.94745925    0.18640000
opls_145-78    C    0.74687998    0.76568989    0.80923888    -0.16950000
opls_145-79    C    0.77089991    0.73973009    0.80817012    -0.16540000
opls_145-80    C    0.76042994    0.71083000    0.94764064    0.18570000
opls_145-81    C    0.72534986    0.70823991    0.09582057    -0.18010000
opls_145-82    C    0.70111003    0.73428993    0.09576909    -0.17240000
opls_142-83    C    0.78302993    0.65634999    0.03836990    0.06840000
opls_700-84    C    0.18727009    0.36703990    0.97577889    0.06640000
opls_145-85    C    0.15516007    0.35820999    0.80377007    -0.12060000
opls_145-86    C    0.12727995    0.38033012    0.74217919    -0.12040000
opls_700-87    C    0.13090002    0.41182007    0.84972913    0.06140000
opls_145-88    C    0.16311003    0.42082995    0.01924991    -0.13120000
opls_145-89    C    0.19100011    0.39854006    0.08360093    -0.13350000
opls_700-90    C    0.10108012    0.43500007    0.77956122    0.06870000
opls_592-91    C    0.06359996    0.42614001    0.82135066    -0.13410000
opls_593-92    C    0.03483996    0.44686003    0.73329084    -0.17100000
opls_594-93    C    0.04336986    0.47653010    0.60350043    0.10320000
opls_595-94    C    0.08009007    0.48513992    0.56694938    0.00360000
opls_590-95    C    0.10949010    0.46531998    0.65375904    -0.17000000
opls_594-96    C    0.52757989    0.03721004    0.40014953    0.10300000
opls_595-97    C    0.48244999    0.06868005    0.56212036    0.00360000
opls_593-98    C    0.43760008    0.02996994    0.72636107    -0.17250000
opls_592-99    C    0.41267008    0.05465001    0.79579115    -0.13380000
opls_700-100    C    0.42263987    0.08668011    0.74203947    0.06760000
opls_590-101    C    0.45863999    0.09389005    0.63198921    -0.17720000
opls_700-102    C    0.39430001    0.11192003    0.76704988    0.06280000
opls_145-103    C    0.35981012    0.10760004    0.61482044    -0.12060000
opls_145-104    C    0.33342002    0.13174993    0.61808065    -0.12210000
opls_700-105    C    0.34076013    0.16059993    0.77657066    0.06020000
opls_145-106    C    0.37501987    0.16488003    0.93430077    -0.13290000
opls_145-107    C    0.40177998    0.14077002    0.92697880    -0.13320000
opls_142-108    C    0.31251000    0.18586003    0.76456919    0.07000000
opls_145-109    C    0.28872992    0.23700989    0.94745925    0.18640000
opls_145-110    C    0.25312002    0.23431011    0.80923888    -0.16950000
opls_145-111    C    0.22910009    0.26026991    0.80817012    -0.16540000
opls_145-112    C    0.23957006    0.28917000    0.94764064    0.18570000
opls_145-113    C    0.27465014    0.29176009    0.09582057    -0.18010000
opls_145-114    C    0.29888997    0.26571007    0.09576909    -0.17240000
opls_142-115    C    0.21697007    0.34365001    0.03836990    0.06840000
opls_700-116    C    0.81272991    0.63296010    0.97577889    0.06640000
opls_145-117    C    0.84483993    0.64179001    0.80377007    -0.12060000
opls_145-118    C    0.87272005    0.61966988    0.74217919    -0.12040000
opls_700-119    C    0.86909998    0.58817993    0.84972913    0.06140000
opls_145-120    C    0.83688997    0.57917005    0.01924991    -0.13110000
opls_145-121    C    0.80899989    0.60145994    0.08360093    -0.13350000
opls_700-122    C    0.89891988    0.56499993    0.77956122    0.06870000
opls_592-123    C    0.93640004    0.57385999    0.82135066    -0.13410000
opls_593-124    C    0.96516004    0.55313997    0.73329084    -0.17080000
opls_594-125    C    0.95663014    0.52346990    0.60350043    0.10320000
opls_595-126    C    0.91990993    0.51486008    0.56694938    0.00360000
opls_590-127    C    0.89050990    0.53468002    0.65375904    -0.17010000
opls_750-128    N    0.31511005    0.78863009    0.05684030    -0.34370000
opls_750-129    N    0.21380006    0.68501004    0.07631082    -0.35870000
opls_750-130    N    0.68488995    0.21136991    0.05684030    -0.34380000
opls_750-131    N    0.78619994    0.31498996    0.07631082    -0.35860000
opls_750-132    N    0.68488995    0.78863009    0.94315970    -0.34380000
opls_750-133    N    0.78619994    0.68501004    0.92368918    -0.35870000
opls_750-134    N    0.31511005    0.21136991    0.94315970    -0.34360000
opls_750-135    N    0.21380006    0.31498996    0.92368918    -0.35870000
opls_542-136    N    0.50000000    0.98294989    0.50000000    0.02220000
opls_542-137    N    0.50000000    0.01705011    0.50000000    0.02220000
opls_542-138    N    0.98011998    0.50000000    0.50000000    0.01890000
opls_542-139    N    0.01988002    0.50000000    0.50000000    0.01890000
opls_602-140    H    0.42878991    0.99399001    0.24441966    0.08600000
opls_601-141    H    0.38519986    0.95123011    0.11644074    0.11310000
opls_599-142    H    0.46696993    0.88186010    0.41537934    0.11480000
opls_146-143    H    0.35378000    0.91413000    0.51665890    0.11380000
opls_146-144    H    0.30735008    0.87194989    0.50770928    0.11170000
opls_146-145    H    0.38106993    0.81305991    0.94032112    0.11380000
opls_146-146    H    0.42812992    0.85555009    0.95221963    0.11550000
opls_144-147    H    0.28973997    0.81743997    0.40378968    0.11280000
opls_146-148    H    0.24338011    0.78755004    0.29811987    0.11230000
opls_146-149    H    0.20211011    0.74188997    0.30520897    0.11550000
opls_146-150    H    0.28363009    0.68640991    0.79065082    0.11170000
opls_146-151    H    0.32590986    0.73215000    0.79151121    0.11480000
opls_144-152    H    0.24109995    0.64907997    0.82404952    0.11830000
opls_146-153    H    0.84820991    0.33418997    0.28603015    0.11340000
opls_146-154    H    0.89682999    0.37290008    0.39635004    0.11320000
opls_146-155    H    0.83361001    0.44490007    0.89412918    0.11720000
opls_146-156    H    0.78458004    0.40584997    0.78211055    0.11340000
opls_601-157    H    0.94336986    0.40303004    0.07996078    0.11490000
opls_602-158    H    0.99312988    0.43910993    0.24500061    0.08540000
opls_599-159    H    0.86216007    0.47274005    0.38454958    0.11970000
opls_602-160    H    0.57121009    0.00600999    0.24441966    0.08600000
opls_601-161    H    0.61480014    0.04876989    0.11644074    0.11310000
opls_599-162    H    0.53303007    0.11813990    0.41537934    0.11480000
opls_146-163    H    0.64622000    0.08587000    0.51665890    0.11380000
opls_146-164    H    0.69264992    0.12805011    0.50770928    0.11170000
opls_146-165    H    0.61893007    0.18694009    0.94032112    0.11380000
opls_146-166    H    0.57187008    0.14444991    0.95221963    0.11560000
opls_144-167    H    0.71026003    0.18256003    0.40378968    0.11290000
opls_146-168    H    0.75661989    0.21244996    0.29811987    0.11230000
opls_146-169    H    0.79788989    0.25811003    0.30520897    0.11560000
opls_146-170    H    0.71636991    0.31359009    0.79065082    0.11170000
opls_146-171    H    0.67409014    0.26785000    0.79151121    0.11480000
opls_144-172    H    0.75890005    0.35092003    0.82404952    0.11830000
opls_146-173    H    0.15179009    0.66581003    0.28603015    0.11340000
opls_146-174    H    0.10317001    0.62709992    0.39635004    0.11320000
opls_146-175    H    0.16638999    0.55509993    0.89412918    0.11720000
opls_146-176    H    0.21541996    0.59415003    0.78211055    0.11340000
opls_601-177    H    0.05663014    0.59696996    0.07996078    0.11490000
opls_602-178    H    0.00687012    0.56089007    0.24500061    0.08540000
opls_599-179    H    0.13783993    0.52725995    0.38454958    0.11980000
opls_602-180    H    0.57121009    0.99399001    0.75558034    0.08600000
opls_601-181    H    0.61480014    0.95123011    0.88355926    0.11310000
opls_599-182    H    0.53303007    0.88186010    0.58462066    0.11480000
opls_146-183    H    0.64622000    0.91413000    0.48334110    0.11380000
opls_146-184    H    0.69264992    0.87194989    0.49229072    0.11170000
opls_146-185    H    0.61893007    0.81305991    0.05967888    0.11380000
opls_146-186    H    0.57187008    0.85555009    0.04778037    0.11550000
opls_144-187    H    0.71026003    0.81743997    0.59621032    0.11280000
opls_146-188    H    0.75661989    0.78755004    0.70188013    0.11240000
opls_146-189    H    0.79788989    0.74188997    0.69479103    0.11550000
opls_146-190    H    0.71636991    0.68640991    0.20934918    0.11170000
opls_146-191    H    0.67409014    0.73215000    0.20848879    0.11470000
opls_144-192    H    0.75890005    0.64907997    0.17595048    0.11830000
opls_146-193    H    0.15179009    0.33418997    0.71396985    0.11350000
opls_146-194    H    0.10317001    0.37290008    0.60364996    0.11320000
opls_146-195    H    0.16638999    0.44490007    0.10587082    0.11720000
opls_146-196    H    0.21541996    0.40584997    0.21788945    0.11340000
opls_601-197    H    0.05663014    0.40303004    0.92003922    0.11490000
opls_602-198    H    0.00687012    0.43910993    0.75499939    0.08540000
opls_599-199    H    0.13783993    0.47274005    0.61545042    0.11970000
opls_602-200    H    0.42878991    0.00600999    0.75558034    0.08600000
opls_601-201    H    0.38519986    0.04876989    0.88355926    0.11310000
opls_599-202    H    0.46696993    0.11813990    0.58462066    0.11490000
opls_146-203    H    0.35378000    0.08587000    0.48334110    0.11380000
opls_146-204    H    0.30735008    0.12805011    0.49229072    0.11170000
opls_146-205    H    0.38106993    0.18694009    0.05967888    0.11380000
opls_146-206    H    0.42812992    0.14444991    0.04778037    0.11560000
opls_144-207    H    0.28973997    0.18256003    0.59621032    0.11280000
opls_146-208    H    0.24338011    0.21244996    0.70188013    0.11230000
opls_146-209    H    0.20211011    0.25811003    0.69479103    0.11550000
opls_146-210    H    0.28363009    0.31359009    0.20934918    0.11170000
opls_146-211    H    0.32590986    0.26785000    0.20848879    0.11480000
opls_144-212    H    0.24109995    0.35092003    0.17595048    0.11830000
opls_146-213    H    0.84820991    0.66581003    0.71396985    0.11340000
opls_146-214    H    0.89682999    0.62709992    0.60364996    0.11330000
opls_146-215    H    0.83361001    0.55509993    0.10587082    0.11720000
opls_146-216    H    0.78458004    0.59415003    0.21788945    0.11340000
opls_601-217    H    0.94336986    0.59696996    0.92003922    0.11490000
opls_602-218    H    0.99312988    0.56089007    0.75499939    0.08540000
opls_599-219    H    0.86216007    0.52725995    0.61545042    0.11970000
