#======================================================================
# Crystal Data Generated By AuToFF
#----------------------------------------------------------------------

data_AuToFF_phase_1

_cell_length_a                         33.4630
_cell_length_b                         33.4630
_cell_length_c                         3.5250
_cell_angle_alpha                      90.00
_cell_angle_beta                       90.00
_cell_angle_gamma                      120.00
_symmetry_space_group_name_H-M_alt     'P 1'
_symmetry_space_group_IT_number        1

loop_
_space_group_symop_operation_xyz
   'x, y, z'

loop_
   _atom_site_label
   _atom_site_type_symbol
   _atom_site_fract_x
   _atom_site_fract_y
   _atom_site_fract_z
   _atom_site_charge
opls_700-0    C    0.65158004    0.28495011    0.00000000    -0.18230000
opls_231-1    C    0.70001994    0.31824984    0.00000000    0.35440000
opls_142-2    C    0.59953005    0.36150996    0.00000000    -0.13940000
opls_142-3    C    0.59693979    0.46528980    0.00000000    0.02080000
opls_700-4    C    0.56759999    0.48440000    0.00000000    0.07960000
opls_145-5    C    0.58680986    0.53293000    0.00000000    -0.11900000
opls_145-6    C    0.55856019    0.55241011    0.00000000    -0.11520000
opls_700-7    C    0.50995012    0.52462007    0.00000000    0.08570000
opls_145-8    C    0.51913002    0.45625006    0.00000000    -0.11440000
opls_700-9    C    0.71505009    0.36663008    0.00000000    -0.18220000
opls_231-10    C    0.68175010    0.38176993    0.00000000    0.35440000
opls_142-11    C    0.63848995    0.23801985    0.00000000    -0.13940000
opls_142-12    C    0.53471000    0.13164993    0.00000000    0.02080000
opls_700-13    C    0.51559994    0.08319999    0.00000000    0.07960000
opls_145-14    C    0.46706996    0.05387993    0.00000000    -0.11900000
opls_145-15    C    0.44759021    0.00615014    0.00000000    -0.11520000
opls_700-16    C    0.47537983    0.98532979    0.00000000    0.08560000
opls_145-17    C    0.54375001    0.06287998    0.00000000    -0.11440000
opls_700-18    C    0.63336987    0.34841981    0.00000000    -0.18230000
opls_231-19    C    0.61823009    0.29997988    0.00000000    0.35440000
opls_142-20    C    0.76197983    0.40046984    0.00000000    -0.13940000
opls_142-21    C    0.86835003    0.40305992    0.00000000    0.02080000
opls_700-22    C    0.91680007    0.43240001    0.00000000    0.07960000
opls_145-23    C    0.94612019    0.41319008    0.00000000    -0.11900000
opls_145-24    C    0.99385007    0.44144009    0.00000000    -0.11520000
opls_700-25    C    0.01466988    0.49004980    0.00000000    0.08560000
opls_145-26    C    0.93711997    0.48086996    0.00000000    -0.11440000
opls_700-27    C    0.34841996    0.71504989    0.00000000    -0.18230000
opls_231-28    C    0.29997989    0.68174981    0.00000000    0.35440000
opls_142-29    C    0.40046995    0.63849004    0.00000000    -0.14100000
opls_142-30    C    0.40306003    0.53470985    0.00000000    0.02080000
opls_700-31    C    0.43240001    0.51560000    0.00000000    0.07960000
opls_145-32    C    0.41319014    0.46707000    0.00000000    -0.11900000
opls_145-33    C    0.44143981    0.44758989    0.00000000    -0.11520000
opls_700-34    C    0.49004988    0.47537993    0.00000000    0.08560000
opls_145-35    C    0.48086998    0.54374994    0.00000000    -0.11440000
opls_700-36    C    0.28494991    0.63336992    0.00000000    -0.18230000
opls_231-37    C    0.31824990    0.61823007    0.00000000    0.35440000
opls_142-38    C    0.36150988    0.76197981    0.00000000    -0.13940000
opls_142-39    C    0.46529000    0.86835007    0.00000000    0.02080000
opls_700-40    C    0.48440006    0.91680001    0.00000000    0.07960000
opls_145-41    C    0.53293004    0.94612007    0.00000000    -0.11900000
opls_145-42    C    0.55240979    0.99384986    0.00000000    -0.11510000
opls_700-43    C    0.52462000    0.01466987    0.00000000    0.08560000
opls_145-44    C    0.45624999    0.93712002    0.00000000    -0.11440000
opls_700-45    C    0.36662995    0.65157984    0.00000000    -0.18230000
opls_231-46    C    0.38176991    0.70002012    0.00000000    0.35450000
opls_142-47    C    0.23801999    0.59952981    0.00000000    -0.13930000
opls_142-48    C    0.13164997    0.59694008    0.00000000    0.02080000
opls_700-49    C    0.08319993    0.56759999    0.00000000    0.07960000
opls_145-50    C    0.05387981    0.58680992    0.00000000    -0.11900000
opls_145-51    C    0.00614993    0.55855991    0.00000000    -0.11520000
opls_700-52    C    0.98532995    0.50994986    0.00000000    0.08560000
opls_145-53    C    0.06288003    0.51913004    0.00000000    -0.11440000
opls_238-54    N    0.61150999    0.40639983    0.00000000    -0.07280000
opls_750-55    N    0.58055000    0.42002001    0.00000000    -0.08280000
opls_238-56    N    0.59360006    0.20511004    0.00000000    -0.07280000
opls_750-57    N    0.57997993    0.16053004    0.00000000    -0.08280000
opls_238-58    N    0.79488995    0.38849012    0.00000000    -0.07280000
opls_750-59    N    0.83947007    0.41944995    0.00000000    -0.08280000
opls_238-60    N    0.38848984    0.59359982    0.00000000    -0.07280000
opls_750-61    N    0.41945000    0.57997999    0.00000000    -0.08280000
opls_238-62    N    0.40639994    0.79488996    0.00000000    -0.07280000
opls_750-63    N    0.42002007    0.83946996    0.00000000    -0.08270000
opls_238-64    N    0.20511005    0.61150988    0.00000000    -0.07280000
opls_750-65    N    0.16052993    0.58055005    0.00000000    -0.08280000
opls_272-66    O    0.69590003    0.42530990    0.00000000    -0.43110000
opls_272-67    O    0.57468991    0.27059011    0.00000000    -0.43140000
opls_272-68    O    0.72941007    0.30409999    0.00000000    -0.43130000
opls_272-69    O    0.30409997    0.57469010    0.00000000    -0.43130000
opls_272-70    O    0.42531009    0.72940989    0.00000000    -0.43140000
opls_272-71    O    0.27058993    0.69590001    0.00000000    -0.43140000
opls_144-72    H    0.56267984    0.33572994    0.00000000    0.08170000
opls_910-73    H    0.64801978    0.42964981    0.00000000    0.29770000
opls_144-74    H    0.63485015    0.48894006    0.00000000    0.07560000
opls_146-75    H    0.62458997    0.55509991    0.00000000    0.09670000
opls_146-76    H    0.57383004    0.59013982    0.00000000    0.09000000
opls_146-77    H    0.50415988    0.41858004    0.00000000    0.07530000
opls_144-78    H    0.66426994    0.22695007    0.00000000    0.08160000
opls_910-79    H    0.57034985    0.21836996    0.00000000    0.29770000
opls_144-80    H    0.51106000    0.14590986    0.00000000    0.07570000
opls_146-81    H    0.44490015    0.06949010    0.00000000    0.09670000
opls_146-82    H    0.40986013    0.98369002    0.00000000    0.09000000
opls_146-83    H    0.58142009    0.08557993    0.00000000    0.07530000
opls_144-84    H    0.77304991    0.43731998    0.00000000    0.08160000
opls_910-85    H    0.78162990    0.35197988    0.00000000    0.29770000
opls_144-86    H    0.85409015    0.36515008    0.00000000    0.07560000
opls_146-87    H    0.93050988    0.37540998    0.00000000    0.09670000
opls_146-88    H    0.01630996    0.42616981    0.00000000    0.09000000
opls_146-89    H    0.91442003    0.49584003    0.00000000    0.07530000
opls_144-90    H    0.43732016    0.66427006    0.00000000    0.08160000
opls_910-91    H    0.35198005    0.57034984    0.00000000    0.29770000
opls_144-92    H    0.36514985    0.51105994    0.00000000    0.07560000
opls_146-93    H    0.37541003    0.44490009    0.00000000    0.09680000
opls_146-94    H    0.42616979    0.40985983    0.00000000    0.09000000
opls_146-95    H    0.49584012    0.58141996    0.00000000    0.07530000
opls_144-96    H    0.33573006    0.77304993    0.00000000    0.08160000
opls_910-97    H    0.42965015    0.78163004    0.00000000    0.29780000
opls_144-98    H    0.48893983    0.85408980    0.00000000    0.07560000
opls_146-99    H    0.55509985    0.93050990    0.00000000    0.09670000
opls_146-100    H    0.59013987    0.01630998    0.00000000    0.09000000
opls_146-101    H    0.41857991    0.91442007    0.00000000    0.07530000
opls_144-102    H    0.22695009    0.56268002    0.00000000    0.08160000
opls_910-103    H    0.21837010    0.64802012    0.00000000    0.29780000
opls_144-104    H    0.14590985    0.63484992    0.00000000    0.07560000
opls_146-105    H    0.06949012    0.62459002    0.00000000    0.09670000
opls_146-106    H    0.98368987    0.57382985    0.00000000    0.09000000
opls_146-107    H    0.08557997    0.50415997    0.00000000    0.07530000
