#======================================================================
# Crystal Data Generated By AuToFF
#----------------------------------------------------------------------

data_AuToFF_phase_1

_cell_length_a                         38.0430
_cell_length_b                         38.0430
_cell_length_c                         3.4685
_cell_angle_alpha                      90.00
_cell_angle_beta                       90.00
_cell_angle_gamma                      120.00
_symmetry_space_group_name_H-M_alt     'P 1'
_symmetry_space_group_IT_number        1

loop_
_space_group_symop_operation_xyz
   'x, y, z'

loop_
   _atom_site_label
   _atom_site_type_symbol
   _atom_site_fract_x
   _atom_site_fract_y
   _atom_site_fract_z
   _atom_site_charge
opls_145-0    C    0.69084009    0.86455008    0.31820960    -0.13110000
opls_145-1    C    0.64783013    0.84507014    0.31820960    -0.17810000
opls_700-2    C    0.62209006    0.80313025    0.31820960    0.01380000
opls_716-3    C    0.64290017    0.77987021    0.31820960    0.11670000
opls_716-4    C    0.68784995    0.80022006    0.31820960    0.11690000
opls_700-5    C    0.71279001    0.84421997    0.31820960    0.01200000
opls_700-6    C    0.75775015    0.86629019    0.31820960    0.07080000
opls_700-7    C    0.57734004    0.78454996    0.31820960    0.07130000
opls_145-8    C    0.55863988    0.80871997    0.31820960    -0.12770000
opls_145-9    C    0.51664003    0.79176020    0.31820960    -0.17980000
opls_916-10    C    0.49052986    0.74922996    0.31820960    0.22810000
opls_145-11    C    0.50859008    0.72463015    0.31820960    -0.18130000
opls_145-12    C    0.55069012    0.74203004    0.31820960    -0.13990000
opls_145-13    C    0.78033009    0.84592002    0.31820960    -0.12780000
opls_145-14    C    0.82254991    0.86676005    0.31820960    -0.18490000
opls_916-15    C    0.84512001    0.90961021    0.31820960    0.22830000
opls_145-16    C    0.82320001    0.93053008    0.31820960    -0.18270000
opls_145-17    C    0.78085019    0.90926025    0.31820960    -0.13110000
opls_142-18    C    0.91499020    0.96832017    0.31820960    0.09150000
opls_700-19    C    0.95689008    0.98344028    0.31820960    -0.11890000
opls_142-20    C    0.41879987    0.69459998    0.31820960    0.09150000
opls_700-21    C    0.37755020    0.68227019    0.31820960    -0.11900000
opls_280-22    C    0.97424009    0.95641015    0.31820960    0.34650000
opls_280-23    C    0.36310003    0.71176008    0.31820960    0.27840000
opls_145-24    C    0.13658998    0.82742016    0.31820960    -0.13180000
opls_145-25    C    0.15607006    0.80388998    0.31820960    -0.13110000
opls_700-26    C    0.19800995    0.82009003    0.31820960    0.01370000
opls_716-27    C    0.22126991    0.86417007    0.31820960    0.11660000
opls_716-28    C    0.20092006    0.88877018    0.31820960    0.11680000
opls_700-29    C    0.15692004    0.86971001    0.31820960    0.01120000
opls_700-30    C    0.13484009    0.89259004    0.31820960    0.07080000
opls_700-31    C    0.21658994    0.79392009    0.31820960    0.07120000
opls_145-32    C    0.19242019    0.75105020    0.31820960    -0.12790000
opls_145-33    C    0.20937990    0.72602000    0.31820960    -0.18040000
opls_916-34    C    0.25191004    0.74243008    0.31820960    0.22820000
opls_145-35    C    0.27650012    0.78509024    0.31820960    -0.18490000
opls_145-36    C    0.25910008    0.80979020    0.31820960    -0.13990000
opls_145-37    C    0.15522002    0.93554006    0.31820960    -0.12790000
opls_145-38    C    0.13437993    0.95693009    0.31820960    -0.18300000
opls_916-39    C    0.09152008    0.93664004    0.31820960    0.22820000
opls_145-40    C    0.07061012    0.89381021    0.31820960    -0.18270000
opls_145-41    C    0.09187012    0.87272007    0.31820960    -0.13110000
opls_142-42    C    0.03281995    0.94781007    0.31820960    0.09150000
opls_700-43    C    0.01770011    0.97459009    0.31820960    -0.20900000
opls_142-44    C    0.30654013    0.72533008    0.31820960    0.09150000
opls_700-45    C    0.31887015    0.69642022    0.31820960    -0.11900000
opls_280-46    C    0.04472999    0.01782998    0.31820960    0.33320000
opls_280-47    C    0.28938018    0.65248010    0.31820960    0.27840000
opls_145-48    C    0.17372010    0.31030013    0.31820960    -0.17810000
opls_145-49    C    0.19724010    0.35330994    0.31820960    -0.13110000
opls_700-50    C    0.18105016    0.37905009    0.31820960    0.01380000
opls_716-51    C    0.13697011    0.35824010    0.31820960    0.11660000
opls_716-52    C    0.11237018    0.31329015    0.31820960    0.11680000
opls_700-53    C    0.13143000    0.28835010    0.31820960    0.01120000
opls_700-54    C    0.10853995    0.24339013    0.31820960    0.07110000
opls_700-55    C    0.20722004    0.42380001    0.31820960    0.07120000
opls_145-56    C    0.25008011    0.44250020    0.31820960    -0.12790000
opls_145-57    C    0.27512000    0.48450019    0.31820960    -0.17980000
opls_916-58    C    0.25870012    0.51061002    0.31820960    0.22820000
opls_145-59    C    0.21604998    0.49254998    0.31820960    -0.18130000
opls_145-60    C    0.19134998    0.45045013    0.31820960    -0.11910000
opls_145-61    C    0.06558992    0.22080999    0.31820960    -0.12780000
opls_145-62    C    0.04420994    0.17858994    0.31820960    -0.18580000
opls_916-63    C    0.06449009    0.15602012    0.31820960    0.22820000
opls_145-64    C    0.10733006    0.17794010    0.31820960    -0.18270000
opls_145-65    C    0.12842013    0.22029005    0.31820960    -0.13110000
opls_142-66    C    0.05333005    0.08615015    0.31820960    0.09160000
opls_700-67    C    0.02655000    0.04425002    0.31820960    -0.15700000
opls_142-68    C    0.27580002    0.58234000    0.31820960    0.09150000
opls_700-69    C    0.30472010    0.62358997    0.31820960    -0.11890000
opls_280-70    C    0.34865998    0.63804020    0.31820960    0.27840000
opls_280-71    C    0.98330999    0.02803996    0.31820960    0.33330000
opls_238-72    N    0.88740007    0.92832011    0.31820960    -0.20280000
opls_238-73    N    0.44862008    0.73395020    0.31820960    -0.22860000
opls_750-74    N    0.62360999    0.73966011    0.31820960    -0.35470000
opls_750-75    N    0.70308017    0.77559020    0.31820960    -0.35470000
opls_238-76    N    0.07282009    0.96022000    0.31820960    -0.21420000
opls_238-77    N    0.26718003    0.71580000    0.31820960    -0.21600000
opls_750-78    N    0.26148001    0.88509024    0.31820960    -0.35450000
opls_750-79    N    0.22554992    0.92863001    0.31820960    -0.35460000
opls_238-80    N    0.04091988    0.11373998    0.31820960    -0.21430000
opls_238-81    N    0.28533008    0.55252017    0.31820960    -0.22860000
opls_750-82    N    0.11604993    0.37753003    0.31820960    -0.35460000
opls_750-83    N    0.07251009    0.29806017    0.31820960    -0.35470000
opls_202-84    S    0.66123011    0.72349011    0.31820960    0.45820000
opls_202-85    S    0.27764995    0.93888005    0.31820960    0.45830000
opls_202-86    S    0.06225998    0.33990991    0.31820960    0.45820000
opls_146-87    H    0.70707010    0.89788018    0.31820960    0.11120000
opls_146-88    H    0.63487015    0.86518020    0.31820960    0.07050000
opls_146-89    H    0.57719022    0.84198026    0.31820960    0.11120000
opls_146-90    H    0.50345008    0.81169998    0.31820960    0.06470000
opls_146-91    H    0.48957011    0.69143998    0.31820960    0.08680000
opls_146-92    H    0.56346993    0.72172997    0.31820960    0.07620000
opls_146-93    H    0.76427001    0.81257019    0.31820960    0.06470000
opls_146-94    H    0.83877999    0.84963000    0.31820960    0.07630000
opls_146-95    H    0.83938008    0.96386017    0.31820960    0.06750000
opls_146-96    H    0.76549002    0.92720010    0.31820960    0.11120000
opls_144-97    H    0.90377019    0.99006016    0.31820960    0.06020000
opls_144-98    H    0.42765999    0.67105008    0.31820960    0.06340000
opls_910-99    H    0.90030011    0.90954010    0.31820960    0.27900000
opls_910-100    H    0.43802006    0.75469007    0.31820960    0.27900000
opls_146-101    H    0.10326014    0.81033017    0.31820960    0.11120000
opls_146-102    H    0.13594993    0.77083002    0.31820960    0.09910000
opls_146-103    H    0.15916002    0.73635017    0.31820960    0.06750000
opls_146-104    H    0.18944015    0.69289023    0.31820960    0.06470000
opls_146-105    H    0.30969994    0.79927002    0.31820960    0.09910000
opls_146-106    H    0.27941003    0.84288021    0.31820960    0.11680000
opls_146-107    H    0.18855998    0.95283007    0.31820960    0.07490000
opls_146-108    H    0.15151003    0.99030025    0.31820960    0.11670000
opls_146-109    H    0.03727995    0.87667015    0.31820960    0.06750000
opls_146-110    H    0.07392997    0.83942002    0.31820960    0.11130000
opls_144-111    H    0.01108021    0.91485027    0.31820960    0.06020000
opls_144-112    H    0.33009003    0.75774019    0.31820960    0.06350000
opls_910-113    H    0.09159000    0.99190013    0.31820960    0.27900000
opls_910-114    H    0.24645004    0.68447014    0.31820960    0.27900000
opls_146-115    H    0.19080994    0.29406001    0.31820960    0.11120000
opls_146-116    H    0.23031012    0.36627016    0.31820960    0.07060000
opls_146-117    H    0.26478995    0.42394995    0.31820960    0.11120000
opls_146-118    H    0.30824997    0.49769017    0.31820960    0.06470000
opls_146-119    H    0.20186999    0.51157007    0.31820960    0.09910000
opls_146-120    H    0.15826023    0.43767020    0.31820960    0.11670000
opls_146-121    H    0.04829994    0.23687011    0.31820960    0.06470000
opls_146-122    H    0.01084018    0.16235013    0.31820960    0.11360000
opls_146-123    H    0.12446991    0.16175007    0.31820960    0.11120000
opls_146-124    H    0.16171005    0.23564994    0.31820960    0.08920000
opls_144-125    H    0.08629006    0.09736995    0.31820960    0.06030000
opls_144-126    H    0.24340014    0.57348010    0.31820960    0.06620000
opls_910-127    H    0.00924008    0.10083014    0.31820960    0.27900000
opls_910-128    H    0.31667010    0.56312018    0.31820960    0.27910000
opls_281-129    O    0.95188007    0.91855024    0.31820960    -0.37260000
opls_281-130    O    0.38752004    0.74907000    0.31820960    -0.38780000
opls_281-131    O    0.08257993    0.03333010    0.31820960    -0.33650000
opls_281-132    O    0.25207006    0.63959000    0.31820960    -0.38780000
opls_281-133    O    0.36154994    0.61362008    0.31820960    -0.38780000
opls_281-134    O    0.96780995    0.05039003    0.31820960    -0.33650000
