#======================================================================
# Crystal Data Generated By AuToFF
#----------------------------------------------------------------------

data_AuToFF_phase_1

_cell_length_a                         35.6342
_cell_length_b                         31.6588
_cell_length_c                         3.9938
_cell_angle_alpha                      90.00
_cell_angle_beta                       90.00
_cell_angle_gamma                      90.00
_symmetry_space_group_name_H-M_alt     'P 1'
_symmetry_space_group_IT_number        1

loop_
_space_group_symop_operation_xyz
   'x, y, z'

loop_
   _atom_site_label
   _atom_site_type_symbol
   _atom_site_fract_x
   _atom_site_fract_y
   _atom_site_fract_z
   _atom_site_charge
opls_700-0    C    0.03281005    0.90997006    0.59855025    0.01710000
opls_700-1    C    0.03131991    0.95473991    0.62782062    0.02040000
opls_145-2    C    0.06040012    0.97800991    0.78022936    -0.22660000
opls_700-3    C    0.27737988    0.71745012    0.49465922    0.04810000
opls_145-4    C    0.28424996    0.75649014    0.33418048    -0.22700000
opls_145-5    C    0.24274994    0.71136998    0.65996044    -0.22700000
opls_142-6    C    0.30405004    0.68509009    0.49882067    0.09260000
opls_700-7    C    0.43391012    0.61388998    0.35925935    0.06680000
opls_145-8    C    0.43284008    0.65268014    0.18285092    -0.20150000
opls_145-9    C    0.39993012    0.67727993    0.17781061    -0.23400000
opls_145-10    C    0.36731988    0.66334005    0.34356002    0.17670000
opls_145-11    C    0.36764990    0.62378991    0.50529070    -0.23570000
opls_145-12    C    0.40058988    0.59995009    0.51643047    -0.22660000
opls_700-13    C    0.53281005    0.40997006    0.59855025    0.01710000
opls_700-14    C    0.53131991    0.45473991    0.62782062    0.02040000
opls_145-15    C    0.56040012    0.47800991    0.78022936    -0.22660000
opls_700-16    C    0.77737988    0.21745012    0.49465922    0.04820000
opls_145-17    C    0.78424996    0.25649014    0.33418048    -0.22700000
opls_145-18    C    0.74274994    0.21136998    0.65996044    -0.22710000
opls_142-19    C    0.80405004    0.18509009    0.49882067    0.09270000
opls_700-20    C    0.93391012    0.11388998    0.35925935    0.06680000
opls_145-21    C    0.93284008    0.15268014    0.18285092    -0.20150000
opls_145-22    C    0.89993012    0.17727993    0.17781061    -0.23400000
opls_145-23    C    0.86731988    0.16334005    0.34356002    0.17670000
opls_145-24    C    0.86764990    0.12378991    0.50529070    -0.23570000
opls_145-25    C    0.90058988    0.09995009    0.51643047    -0.22650000
opls_700-26    C    0.96718995    0.90997006    0.40144975    0.01710000
opls_700-27    C    0.96868009    0.95473991    0.37217938    0.02040000
opls_145-28    C    0.93959988    0.97800991    0.21977064    -0.22660000
opls_700-29    C    0.72262012    0.71745012    0.50534078    0.04810000
opls_145-30    C    0.71575004    0.75649014    0.66581952    -0.22700000
opls_145-31    C    0.75725006    0.71136998    0.34003956    -0.22700000
opls_142-32    C    0.69594996    0.68509009    0.50117933    0.09260000
opls_700-33    C    0.56608988    0.61388998    0.64074065    0.06680000
opls_145-34    C    0.56715992    0.65268014    0.81714908    -0.20150000
opls_145-35    C    0.60006988    0.67727993    0.82218939    -0.23400000
opls_145-36    C    0.63268012    0.66334005    0.65643998    0.17670000
opls_145-37    C    0.63235010    0.62378991    0.49470930    -0.23570000
opls_145-38    C    0.59941012    0.59995009    0.48356953    -0.22660000
opls_700-39    C    0.46718995    0.40997006    0.40144975    0.01710000
opls_700-40    C    0.46868009    0.45473991    0.37217938    0.02040000
opls_145-41    C    0.43959988    0.47800991    0.21977064    -0.22660000
opls_700-42    C    0.22262012    0.21745012    0.50534078    0.04810000
opls_145-43    C    0.21575004    0.25649014    0.66581952    -0.22700000
opls_145-44    C    0.25725006    0.21136998    0.34003956    -0.22710000
opls_142-45    C    0.19594996    0.18509009    0.50117933    0.09260000
opls_700-46    C    0.06608988    0.11388998    0.64074065    0.06680000
opls_145-47    C    0.06715992    0.15268014    0.81714908    -0.20150000
opls_145-48    C    0.10006988    0.17727993    0.82218939    -0.23400000
opls_145-49    C    0.13268012    0.16334005    0.65643998    0.17670000
opls_145-50    C    0.13235010    0.12378991    0.49470930    -0.23570000
opls_145-51    C    0.09941012    0.09995009    0.48356953    -0.22660000
opls_700-52    C    0.96718995    0.09002994    0.40144975    0.01710000
opls_700-53    C    0.96868009    0.04526009    0.37217938    0.02040000
opls_145-54    C    0.93959988    0.02199009    0.21977064    -0.22660000
opls_700-55    C    0.72262012    0.28254988    0.50534078    0.04810000
opls_145-56    C    0.71575004    0.24350986    0.66581952    -0.22700000
opls_145-57    C    0.75725006    0.28863002    0.34003956    -0.22710000
opls_142-58    C    0.69594996    0.31490991    0.50117933    0.09260000
opls_700-59    C    0.56608988    0.38611002    0.64074065    0.06680000
opls_145-60    C    0.56715992    0.34731986    0.81714908    -0.20150000
opls_145-61    C    0.60006988    0.32272007    0.82218939    -0.23400000
opls_145-62    C    0.63268012    0.33665995    0.65643998    0.17670000
opls_145-63    C    0.63235010    0.37621009    0.49470930    -0.23570000
opls_145-64    C    0.59941012    0.40004991    0.48356953    -0.22660000
opls_700-65    C    0.46718995    0.59002994    0.40144975    0.01710000
opls_700-66    C    0.46868009    0.54526009    0.37217938    0.02040000
opls_145-67    C    0.43959988    0.52199009    0.21977064    -0.22660000
opls_700-68    C    0.22262012    0.78254988    0.50534078    0.04810000
opls_145-69    C    0.21575004    0.74350986    0.66581952    -0.22700000
opls_145-70    C    0.25725006    0.78863002    0.34003956    -0.22710000
opls_142-71    C    0.19594996    0.81490991    0.50117933    0.09260000
opls_700-72    C    0.06608988    0.88611002    0.64074065    0.06680000
opls_145-73    C    0.06715992    0.84731986    0.81714908    -0.20150000
opls_145-74    C    0.10006988    0.82272007    0.82218939    -0.23400000
opls_145-75    C    0.13268012    0.83665995    0.65643998    0.17670000
opls_145-76    C    0.13235010    0.87621009    0.49470930    -0.23570000
opls_145-77    C    0.09941012    0.90004991    0.48356953    -0.22660000
opls_700-78    C    0.03281005    0.09002994    0.59855025    0.01710000
opls_700-79    C    0.03131991    0.04526009    0.62782062    0.02040000
opls_145-80    C    0.06040012    0.02199009    0.78022936    -0.22660000
opls_700-81    C    0.27737988    0.28254988    0.49465922    0.04810000
opls_145-82    C    0.28424996    0.24350986    0.33418048    -0.22690000
opls_145-83    C    0.24274994    0.28863002    0.65996044    -0.22710000
opls_142-84    C    0.30405004    0.31490991    0.49882067    0.09260000
opls_700-85    C    0.43391012    0.38611002    0.35925935    0.06680000
opls_145-86    C    0.43284008    0.34731986    0.18285092    -0.20150000
opls_145-87    C    0.39993012    0.32272007    0.17781061    -0.23400000
opls_145-88    C    0.36731988    0.33665995    0.34356002    0.17670000
opls_145-89    C    0.36764990    0.37621009    0.50529070    -0.23560000
opls_145-90    C    0.40058988    0.40004991    0.51643047    -0.22660000
opls_700-91    C    0.53281005    0.59002994    0.59855025    0.01710000
opls_700-92    C    0.53131991    0.54526009    0.62782062    0.02040000
opls_145-93    C    0.56040012    0.52199009    0.78022936    -0.22650000
opls_700-94    C    0.77737988    0.78254988    0.49465922    0.04810000
opls_145-95    C    0.78424996    0.74350986    0.33418048    -0.22700000
opls_145-96    C    0.74274994    0.78863002    0.65996044    -0.22710000
opls_142-97    C    0.80405004    0.81490991    0.49882067    0.09270000
opls_700-98    C    0.93391012    0.88611002    0.35925935    0.06680000
opls_145-99    C    0.93284008    0.84731986    0.18285092    -0.20150000
opls_145-100    C    0.89993012    0.82272007    0.17781061    -0.23400000
opls_145-101    C    0.86731988    0.83665995    0.34356002    0.17670000
opls_145-102    C    0.86764990    0.87621009    0.50529070    -0.23570000
opls_145-103    C    0.90058988    0.90004991    0.51643047    -0.22660000
opls_145-104    C    0.00000000    0.11156013    0.50000000    -0.14940000
opls_700-105    C    0.00000000    0.97741007    0.50000000    -0.00680000
opls_145-106    C    0.50000000    0.61156013    0.50000000    -0.14940000
opls_700-107    C    0.50000000    0.47741007    0.50000000    -0.00680000
opls_145-108    C    0.00000000    0.88843987    0.50000000    -0.14940000
opls_700-109    C    0.00000000    0.02258993    0.50000000    -0.00680000
opls_145-110    C    0.50000000    0.38843987    0.50000000    -0.14940000
opls_700-111    C    0.50000000    0.52258993    0.50000000    -0.00680000
opls_750-112    N    0.33765989    0.68961995    0.34707046    -0.35270000
opls_750-113    N    0.83765989    0.18961995    0.34707046    -0.35260000
opls_750-114    N    0.66234011    0.68961995    0.65292954    -0.35250000
opls_750-115    N    0.16234011    0.18961995    0.65292954    -0.35270000
opls_750-116    N    0.66234011    0.31038005    0.65292954    -0.35260000
opls_750-117    N    0.16234011    0.81038005    0.65292954    -0.35270000
opls_750-118    N    0.33765989    0.31038005    0.34707046    -0.35270000
opls_750-119    N    0.83765989    0.81038005    0.34707046    -0.35260000
opls_146-120    H    0.08235010    0.96332015    0.89322951    0.19890000
opls_146-121    H    0.30876995    0.76200014    0.20844058    0.19870000
opls_146-122    H    0.23683007    0.68377007    0.78234013    0.19870000
opls_144-123    H    0.29769014    0.65796998    0.62498122    0.09660000
opls_146-124    H    0.45605009    0.66343987    0.05855075    0.19870000
opls_146-125    H    0.39979991    0.70561992    0.05425910    0.19870000
opls_146-126    H    0.34448002    0.61215997    0.62297060    0.19890000
opls_146-127    H    0.39993995    0.57231007    0.64644950    0.19890000
opls_146-128    H    0.58235010    0.46332015    0.89322951    0.19890000
opls_146-129    H    0.80876995    0.26200014    0.20844058    0.19870000
opls_146-130    H    0.73683007    0.18377007    0.78234013    0.19870000
opls_144-131    H    0.79769014    0.15796998    0.62498122    0.09660000
opls_146-132    H    0.95605009    0.16343987    0.05855075    0.19870000
opls_146-133    H    0.89979991    0.20561992    0.05425910    0.19870000
opls_146-134    H    0.84448002    0.11215997    0.62297060    0.19880000
opls_146-135    H    0.89993995    0.07231007    0.64644950    0.19880000
opls_146-136    H    0.91764990    0.96332015    0.10677049    0.19890000
opls_146-137    H    0.69123005    0.76200014    0.79155942    0.19870000
opls_146-138    H    0.76316993    0.68377007    0.21765987    0.19880000
opls_144-139    H    0.70230986    0.65796998    0.37501878    0.09660000
opls_146-140    H    0.54394991    0.66343987    0.94144925    0.19870000
opls_146-141    H    0.60020009    0.70561992    0.94574090    0.19870000
opls_146-142    H    0.65551998    0.61215997    0.37702940    0.19880000
opls_146-143    H    0.60006005    0.57231007    0.35355050    0.19880000
opls_146-144    H    0.41764990    0.46332015    0.10677049    0.19890000
opls_146-145    H    0.19123005    0.26200014    0.79155942    0.19870000
opls_146-146    H    0.26316993    0.18377007    0.21765987    0.19870000
opls_144-147    H    0.20230986    0.15796998    0.37501878    0.09660000
opls_146-148    H    0.04394991    0.16343987    0.94144925    0.19870000
opls_146-149    H    0.10020009    0.20561992    0.94574090    0.19870000
opls_146-150    H    0.15551998    0.11215997    0.37702940    0.19900000
opls_146-151    H    0.10006005    0.07231007    0.35355050    0.19880000
opls_146-152    H    0.91764990    0.03667985    0.10677049    0.19900000
opls_146-153    H    0.69123005    0.23799986    0.79155942    0.19880000
opls_146-154    H    0.76316993    0.31622993    0.21765987    0.19870000
opls_144-155    H    0.70230986    0.34203002    0.37501878    0.09660000
opls_146-156    H    0.54394991    0.33656013    0.94144925    0.19870000
opls_146-157    H    0.60020009    0.29438008    0.94574090    0.19870000
opls_146-158    H    0.65551998    0.38784003    0.37702940    0.19880000
opls_146-159    H    0.60006005    0.42768993    0.35355050    0.19890000
opls_146-160    H    0.41764990    0.53667985    0.10677049    0.19890000
opls_146-161    H    0.19123005    0.73799986    0.79155942    0.19870000
opls_146-162    H    0.26316993    0.81622993    0.21765987    0.19870000
opls_144-163    H    0.20230986    0.84203002    0.37501878    0.09660000
opls_146-164    H    0.04394991    0.83656013    0.94144925    0.19870000
opls_146-165    H    0.10020009    0.79438008    0.94574090    0.19880000
opls_146-166    H    0.15551998    0.88784003    0.37702940    0.19880000
opls_146-167    H    0.10006005    0.92768993    0.35355050    0.19880000
opls_146-168    H    0.08235010    0.03667985    0.89322951    0.19890000
opls_146-169    H    0.30876995    0.23799986    0.20844058    0.19880000
opls_146-170    H    0.23683007    0.31622993    0.78234013    0.19870000
opls_144-171    H    0.29769014    0.34203002    0.62498122    0.09660000
opls_146-172    H    0.45605009    0.33656013    0.05855075    0.19870000
opls_146-173    H    0.39979991    0.29438008    0.05425910    0.19870000
opls_146-174    H    0.34448002    0.38784003    0.62297060    0.19880000
opls_146-175    H    0.39993995    0.42768993    0.64644950    0.19890000
opls_146-176    H    0.58235010    0.53667985    0.89322951    0.19890000
opls_146-177    H    0.80876995    0.73799986    0.20844058    0.19870000
opls_146-178    H    0.73683007    0.81622993    0.78234013    0.19880000
opls_144-179    H    0.79769014    0.84203002    0.62498122    0.09660000
opls_146-180    H    0.95605009    0.83656013    0.05855075    0.19870000
opls_146-181    H    0.89979991    0.79438008    0.05425910    0.19870000
opls_146-182    H    0.84448002    0.88784003    0.62297060    0.19890000
opls_146-183    H    0.89993995    0.92768993    0.64644950    0.19880000
opls_146-184    H    0.00000000    0.14386995    0.50000000    0.19880000
opls_146-185    H    0.50000000    0.64386995    0.50000000    0.19870000
opls_146-186    H    0.00000000    0.85613005    0.50000000    0.19870000
opls_146-187    H    0.50000000    0.35613005    0.50000000    0.19870000
