#======================================================================
# Crystal Data Generated By AuToFF
#----------------------------------------------------------------------

data_AuToFF_phase_1

_cell_length_a                         25.0761
_cell_length_b                         25.0761
_cell_length_c                         4.1345
_cell_angle_alpha                      90.00
_cell_angle_beta                       90.00
_cell_angle_gamma                      120.00
_symmetry_space_group_name_H-M_alt     'P 1'
_symmetry_space_group_IT_number        1

loop_
_space_group_symop_operation_xyz
   'x, y, z'

loop_
   _atom_site_label
   _atom_site_type_symbol
   _atom_site_fract_x
   _atom_site_fract_y
   _atom_site_fract_z
   _atom_site_charge
opls_590-0    C    0.49966007    0.80863020    0.63715080    -0.22800000
opls_700-1    C    0.45922996    0.74728018    0.54758012    0.02530000
opls_594-2    C    0.48206006    0.70801012    0.47898900    0.10500000
opls_593-3    C    0.54638019    0.73189007    0.45760068    -0.25910000
opls_592-4    C    0.58770991    0.79403993    0.54000967    0.17650000
opls_591-5    C    0.56360016    0.83201007    0.63112105    -0.23550000
opls_142-6    C    0.68589992    0.79435997    0.53762970    0.09000000
opls_700-7    C    0.75057019    0.83056002    0.54403918    0.04300000
opls_591-8    C    0.78607010    0.80355020    0.63717015    -0.20280000
opls_590-9    C    0.85068975    0.83869990    0.64571048    -0.22810000
opls_700-10    C    0.88076998    0.90108001    0.55693071    0.02680000
opls_594-11    C    0.84666014    0.92966007    0.48793083    0.10500000
opls_593-12    C    0.78177995    0.89404988    0.46484944    -0.23890000
opls_594-13    C    0.94421006    0.00220017    0.50319023    0.10230000
opls_700-14    C    0.94281997    0.94533982    0.52303060    -0.07130000
opls_908-15    C    0.86650015    0.03095014    0.29564881    -0.02090000
opls_135-16    C    0.82197009    0.04669022    0.47866973    -0.49360000
opls_700-17    C    0.39540012    0.71324990    0.51271980    -0.07130000
opls_594-18    C    0.38098011    0.65126995    0.49281896    0.10230000
opls_908-19    C    0.44136993    0.60168977    0.28559923    -0.02090000
opls_135-20    C    0.47612989    0.57403988    0.46838070    -0.49360000
opls_590-21    C    0.19136980    0.69102997    0.63715080    -0.22800000
opls_700-22    C    0.25272009    0.71194997    0.54758012    0.02530000
opls_594-23    C    0.29198994    0.77405010    0.47898900    0.10500000
opls_593-24    C    0.26811002    0.81448979    0.45760068    -0.25910000
opls_592-25    C    0.20596011    0.79367017    0.54000967    0.17650000
opls_591-26    C    0.16798984    0.73158984    0.63112105    -0.23550000
opls_142-27    C    0.20564006    0.89153981    0.53762970    0.09000000
opls_700-28    C    0.16943979    0.92000982    0.54403918    0.04300000
opls_591-29    C    0.19644969    0.98251978    0.63717015    -0.20290000
opls_590-30    C    0.16129982    0.01198994    0.64571048    -0.22810000
opls_700-31    C    0.09892024    0.97969013    0.55693071    0.02680000
opls_594-32    C    0.07034002    0.91700013    0.48793083    0.10500000
opls_593-33    C    0.10594992    0.88772981    0.46484944    -0.23890000
opls_594-34    C    0.99779989    0.94201010    0.50319023    0.10230000
opls_700-35    C    0.05466008    0.99747980    0.52303060    -0.07130000
opls_908-36    C    0.96905000    0.83554977    0.29564881    -0.02090000
opls_135-37    C    0.95331012    0.77528004    0.47866973    -0.49360000
opls_700-38    C    0.28675002    0.68215010    0.51271980    -0.07130000
opls_594-39    C    0.34873017    0.72971017    0.49281896    0.10230000
opls_908-40    C    0.39830984    0.83967980    0.28559923    -0.02090000
opls_135-41    C    0.42596008    0.90208984    0.46838070    -0.49360000
opls_590-42    C    0.30896973    0.50033983    0.63715080    -0.22790000
opls_700-43    C    0.28804995    0.54076985    0.54758012    0.02530000
opls_594-44    C    0.22595000    0.51793978    0.47898900    0.10500000
opls_593-45    C    0.18551019    0.45362014    0.45760068    -0.25910000
opls_592-46    C    0.20632998    0.41228990    0.54000967    0.17650000
opls_591-47    C    0.26841001    0.43640009    0.63112105    -0.23540000
opls_142-48    C    0.10846002    0.31410022    0.53762970    0.09010000
opls_700-49    C    0.07999002    0.24943016    0.54403918    0.04300000
opls_591-50    C    0.01748021    0.21393003    0.63717015    -0.20290000
opls_590-51    C    0.98801003    0.14931016    0.64571048    -0.22810000
opls_700-52    C    0.02030977    0.11922986    0.55693071    0.02680000
opls_594-53    C    0.08299983    0.15333980    0.48793083    0.10500000
opls_593-54    C    0.11226990    0.21821985    0.46484944    -0.23890000
opls_594-55    C    0.05799029    0.05579019    0.50319023    0.10230000
opls_700-56    C    0.00252012    0.05717992    0.52303060    -0.07130000
opls_908-57    C    0.16444985    0.13350009    0.29564881    -0.02090000
opls_135-58    C    0.22472002    0.17803020    0.47866973    -0.49360000
opls_700-59    C    0.31784986    0.60460000    0.51271980    -0.07120000
opls_594-60    C    0.27029013    0.61901988    0.49281896    0.10230000
opls_908-61    C    0.16032000    0.55862997    0.28559923    -0.02090000
opls_135-62    C    0.09790980    0.52386982    0.46838070    -0.49340000
opls_750-63    N    0.64981003    0.82026004    0.54173903    -0.34900000
opls_542-64    N    0.88563995    0.99077017    0.44192043    -0.01720000
opls_542-65    N    0.43420006    0.65015007    0.43197968    -0.01770000
opls_750-66    N    0.17974014    0.82955020    0.54173903    -0.34900000
opls_542-67    N    0.00923009    0.89486999    0.44192043    -0.01720000
opls_542-68    N    0.34985011    0.78404985    0.43197968    -0.01770000
opls_750-69    N    0.17045005    0.35019022    0.54173903    -0.34910000
opls_542-70    N    0.10512996    0.11435984    0.44192043    -0.01720000
opls_542-71    N    0.21595023    0.56580008    0.43197968    -0.01770000
opls_602-72    H    0.56324993    0.70473013    0.38098924    0.19710000
opls_600-73    H    0.59245009    0.87692008    0.69574072    0.19700000
opls_144-74    H    0.66593017    0.74742017    0.54049099    0.09650000
opls_600-75    H    0.76523990    0.75807979    0.70165921    0.19690000
opls_599-76    H    0.87491009    0.81896011    0.72185028    0.19620000
opls_602-77    H    0.75713997    0.91390986    0.38902890    0.19700000
opls_599-78    H    0.48333002    0.83594993    0.71214899    0.19620000
opls_140-79    H    0.84302004    0.00787004    0.07321079    0.06880000
opls_140-80    H    0.90622987    0.07367979    0.21748942    0.08750000
opls_140-81    H    0.80498009    0.06845013    0.31107026    0.09950000
opls_140-82    H    0.84443979    0.07868979    0.67603096    0.09580000
opls_140-83    H    0.78237972    0.00615982    0.57829000    0.09700000
opls_140-84    H    0.46700008    0.62154008    0.06318055    0.06880000
opls_140-85    H    0.39712000    0.56411012    0.20755109    0.08750000
opls_140-86    H    0.51982994    0.60923011    0.56705043    0.09690000
opls_140-87    H    0.48553002    0.54608008    0.30086105    0.09710000
opls_140-88    H    0.44938002    0.54435007    0.66636111    0.09580000
opls_602-89    H    0.29526978    0.85851982    0.38098924    0.19710000
opls_600-90    H    0.12308028    0.71553019    0.69574072    0.19690000
opls_144-91    H    0.25258014    0.91851004    0.54049099    0.09650000
opls_600-92    H    0.24192008    0.00715998    0.70165921    0.19700000
opls_599-93    H    0.18103986    0.05594998    0.72185028    0.19620000
opls_602-94    H    0.08608998    0.84323009    0.38902890    0.19700000
opls_599-95    H    0.16404986    0.64737983    0.71214899    0.19620000
opls_140-96    H    0.99213009    0.83515007    0.07321079    0.06880000
opls_140-97    H    0.92632013    0.83255021    0.21748942    0.08750000
opls_140-98    H    0.93154989    0.73652985    0.31107026    0.09940000
opls_140-99    H    0.92130999    0.76574998    0.67603096    0.09580000
opls_140-100    H    0.99384010    0.77621988    0.57829000    0.09700000
opls_140-101    H    0.37846005    0.84546019    0.06318055    0.06880000
opls_140-102    H    0.43588988    0.83300977    0.20755109    0.08750000
opls_140-103    H    0.39077000    0.91059994    0.56705043    0.09690000
opls_140-104    H    0.45391983    0.93944984    0.30086105    0.09710000
opls_140-105    H    0.45564985    0.90502999    0.66636111    0.09580000
opls_602-106    H    0.14147990    0.43675005    0.38098924    0.19710000
opls_600-107    H    0.28447026    0.40755019    0.69574072    0.19700000
opls_144-108    H    0.08149009    0.33406979    0.54049099    0.09650000
opls_600-109    H    0.99283979    0.23475977    0.70165921    0.19690000
opls_599-110    H    0.94405005    0.12508991    0.72185028    0.19630000
opls_602-111    H    0.15677005    0.24286005    0.38902890    0.19700000
opls_599-112    H    0.35261989    0.51666978    0.71214899    0.19620000
opls_140-113    H    0.16484986    0.15697989    0.07321079    0.06880000
opls_140-114    H    0.16745000    0.09377000    0.21748942    0.08750000
opls_140-115    H    0.26347003    0.19502002    0.31107026    0.09950000
opls_140-116    H    0.23424999    0.15555977    0.67603096    0.09580000
opls_140-117    H    0.22377995    0.21761984    0.57829000    0.09700000
opls_140-118    H    0.15454010    0.53300019    0.06318055    0.06880000
opls_140-119    H    0.16699012    0.60288011    0.20755109    0.08750000
opls_140-120    H    0.08940006    0.48016995    0.56705043    0.09690000
opls_140-121    H    0.06055015    0.51447008    0.30086105    0.09710000
opls_140-122    H    0.09497013    0.55061994    0.66636111    0.09580000
