#======================================================================
# Crystal Data Generated By AuToFF
#----------------------------------------------------------------------

data_AuToFF_phase_1

_cell_length_a                         37.6426
_cell_length_b                         37.6426
_cell_length_c                         4.5032
_cell_angle_alpha                      90.00
_cell_angle_beta                       90.00
_cell_angle_gamma                      120.00
_symmetry_space_group_name_H-M_alt     'P 1'
_symmetry_space_group_IT_number        1

loop_
_space_group_symop_operation_xyz
   'x, y, z'

loop_
   _atom_site_label
   _atom_site_type_symbol
   _atom_site_fract_x
   _atom_site_fract_y
   _atom_site_fract_z
   _atom_site_charge
opls_700-0    C    0.28990002    0.64242004    0.58141100    0.07750000
opls_145-1    C    0.31441000    0.62385010    0.58116895    -0.04920000
opls_700-2    C    0.24399000    0.61681010    0.58499067    0.07820000
opls_145-3    C    0.37295990    0.59237993    0.40806982    -0.08150000
opls_145-4    C    0.39651012    0.57319004    0.41279979    -0.14270000
opls_145-5    C    0.43164991    0.58842987    0.59626044    0.22000000
opls_145-6    C    0.44259000    0.62378997    0.76874001    -0.14270000
opls_145-7    C    0.41853005    0.64237004    0.76558003    -0.08140000
opls_142-8    C    0.44429997    0.53237002    0.59825902    0.01570000
opls_700-9    C    0.47254001    0.51585993    0.59083096    -0.02850000
opls_166-10    C    0.45731990    0.47278988    0.58163084    0.23590000
opls_145-11    C    0.48450996    0.45745005    0.59052896    -0.18760000
opls_182-12    C    0.60253992    0.59417996    0.48159087    0.06960000
opls_136-13    C    0.64637006    0.60879003    0.36852905    -0.16000000
opls_136-14    C    0.66909000    0.65480000    0.28088026    -0.38530000
opls_700-15    C    0.35758009    0.64747994    0.58141100    0.07750000
opls_145-16    C    0.37614998    0.69055981    0.58116895    -0.04920000
opls_700-17    C    0.38318982    0.62717991    0.58499067    0.07820000
opls_145-18    C    0.40762012    0.78058004    0.40806982    -0.08150000
opls_145-19    C    0.42681014    0.82332003    0.41279979    -0.14270000
opls_145-20    C    0.41157007    0.84322005    0.59626044    0.22000000
opls_145-21    C    0.37620995    0.81880001    0.76874001    -0.14270000
opls_145-22    C    0.35762994    0.77616003    0.76558003    -0.08150000
opls_142-23    C    0.46762988    0.91192980    0.59825902    0.01570000
opls_700-24    C    0.48414005    0.95667994    0.59083096    -0.02850000
opls_166-25    C    0.52720988    0.98452980    0.58163084    0.23600000
opls_145-26    C    0.54255003    0.02705997    0.59052896    -0.18760000
opls_182-27    C    0.40581988    0.00835996    0.48159087    0.06960000
opls_136-28    C    0.39121012    0.03758008    0.36852905    -0.16000000
opls_136-29    C    0.34520008    0.01429012    0.28088026    -0.38520000
opls_700-30    C    0.35251990    0.71010002    0.58141100    0.07750000
opls_145-31    C    0.30944002    0.68559009    0.58116895    -0.04920000
opls_700-32    C    0.37281991    0.75600999    0.58499067    0.07820000
opls_145-33    C    0.21941998    0.62704003    0.40806982    -0.08150000
opls_145-34    C    0.17668002    0.60348994    0.41279979    -0.14270000
opls_145-35    C    0.15678001    0.56835008    0.59626044    0.22000000
opls_145-36    C    0.18120005    0.55741002    0.76874001    -0.14270000
opls_145-37    C    0.22384001    0.58146993    0.76558003    -0.08150000
opls_142-38    C    0.08807000    0.55569987    0.59825902    0.01570000
opls_700-39    C    0.04331979    0.52745982    0.59083096    -0.02850000
opls_166-40    C    0.01547006    0.54268001    0.58163084    0.23590000
opls_145-41    C    0.97294001    0.51548999    0.59052896    -0.18760000
opls_182-42    C    0.99163993    0.39746008    0.48159087    0.06960000
opls_136-43    C    0.96241982    0.35362989    0.36852905    -0.16000000
opls_136-44    C    0.98570992    0.33090988    0.28088026    -0.38530000
opls_700-45    C    0.71009998    0.35757996    0.58141100    0.07750000
opls_145-46    C    0.68559000    0.37614990    0.58116895    -0.04920000
opls_700-47    C    0.75601000    0.38318990    0.58499067    0.07820000
opls_145-48    C    0.62704010    0.40762007    0.40806982    -0.08150000
opls_145-49    C    0.60348988    0.42680996    0.41279979    -0.14270000
opls_145-50    C    0.56834993    0.41156983    0.59626044    0.22000000
opls_145-51    C    0.55741000    0.37621003    0.76874001    -0.14270000
opls_145-52    C    0.58146995    0.35762996    0.76558003    -0.08150000
opls_142-53    C    0.55570003    0.46762998    0.59825902    0.01570000
opls_700-54    C    0.52745999    0.48414007    0.59083096    -0.02850000
opls_166-55    C    0.54267994    0.52720981    0.58163084    0.23590000
opls_145-56    C    0.51549004    0.54254995    0.59052896    -0.18760000
opls_182-57    C    0.39746008    0.40582004    0.48159087    0.06960000
opls_136-58    C    0.35362994    0.39120997    0.36852905    -0.16000000
opls_136-59    C    0.33091000    0.34520000    0.28088026    -0.38530000
opls_700-60    C    0.64241991    0.35252006    0.58141100    0.07750000
opls_145-61    C    0.62384986    0.30943988    0.58116895    -0.04920000
opls_700-62    C    0.61681018    0.37282009    0.58499067    0.07820000
opls_145-63    C    0.59237988    0.21941996    0.40806982    -0.08150000
opls_145-64    C    0.57318986    0.17667997    0.41279979    -0.14270000
opls_145-65    C    0.58842993    0.15677995    0.59626044    0.22000000
opls_145-66    C    0.62379005    0.18119999    0.76874001    -0.14270000
opls_145-67    C    0.64237006    0.22383997    0.76558003    -0.08150000
opls_142-68    C    0.53236997    0.08806989    0.59825902    0.01570000
opls_700-69    C    0.51585995    0.04332006    0.59083096    -0.02850000
opls_166-70    C    0.47278996    0.01546989    0.58163084    0.23590000
opls_145-71    C    0.45744997    0.97294003    0.59052896    -0.18760000
opls_182-72    C    0.59418012    0.99164004    0.48159087    0.06960000
opls_136-73    C    0.60878988    0.96241992    0.36852905    -0.16000000
opls_136-74    C    0.65479992    0.98570988    0.28088026    -0.38530000
opls_700-75    C    0.64748010    0.28989998    0.58141100    0.07750000
opls_145-76    C    0.69055998    0.31440991    0.58116895    -0.04920000
opls_700-77    C    0.62718009    0.24399001    0.58499067    0.07820000
opls_145-78    C    0.78058002    0.37295997    0.40806982    -0.08150000
opls_145-79    C    0.82331998    0.39651006    0.41279979    -0.14270000
opls_145-80    C    0.84321999    0.43164992    0.59626044    0.22000000
opls_145-81    C    0.81879995    0.44258998    0.76874001    -0.14270000
opls_145-82    C    0.77615999    0.41853007    0.76558003    -0.08150000
opls_142-83    C    0.91192984    0.44429983    0.59825902    0.01570000
opls_700-84    C    0.95668006    0.47253987    0.59083096    -0.02850000
opls_166-85    C    0.98452994    0.45731999    0.58163084    0.23590000
opls_145-86    C    0.02705999    0.48451001    0.59052896    -0.18760000
opls_182-87    C    0.00836007    0.60253992    0.48159087    0.06960000
opls_136-88    C    0.03758018    0.64637011    0.36852905    -0.16000000
opls_136-89    C    0.01428993    0.66908982    0.28088026    -0.38530000
opls_750-90    N    0.45787995    0.57159983    0.59906955    -0.25740000
opls_750-91    N    0.42840004    0.88627998    0.59906955    -0.25740000
opls_750-92    N    0.11371985    0.54211988    0.59906955    -0.25740000
opls_750-93    N    0.54211990    0.42839987    0.59906955    -0.25740000
opls_750-94    N    0.57159996    0.11372002    0.59906955    -0.25740000
opls_750-95    N    0.88628015    0.45788012    0.59906955    -0.25740000
opls_179-96    O    0.41531989    0.44799989    0.56591091    -0.16920000
opls_154-97    O    0.73388981    0.71916980    0.99141944    -0.58320000
opls_154-98    O    0.75385995    0.68291980    0.36412107    -0.59230000
opls_272-99    O    0.72107988    0.64804989    0.86271096    -0.62000000
opls_179-100    O    0.55200013    0.96732000    0.56591091    -0.16920000
opls_154-101    O    0.28082989    0.01471988    0.99141944    -0.58320000
opls_154-102    O    0.31707985    0.07093985    0.36412107    -0.59220000
opls_272-103    O    0.35194994    0.07303007    0.86271096    -0.62000000
opls_179-104    O    0.03267999    0.58468011    0.56591091    -0.16920000
opls_154-105    O    0.98527988    0.26611001    0.99141944    -0.58310000
opls_154-106    O    0.92906004    0.24614004    0.36412107    -0.59220000
opls_272-107    O    0.92696992    0.27892004    0.86271096    -0.62000000
opls_179-108    O    0.58468011    0.55200011    0.56591091    -0.16920000
opls_154-109    O    0.26611004    0.28082989    0.99141944    -0.58320000
opls_154-110    O    0.24613990    0.31707989    0.36412107    -0.59230000
opls_272-111    O    0.27892012    0.35195011    0.86271096    -0.62000000
opls_179-112    O    0.44799987    0.03268000    0.56591091    -0.16920000
opls_154-113    O    0.71916995    0.98527981    0.99141944    -0.58320000
opls_154-114    O    0.68291999    0.92905985    0.36412107    -0.59220000
opls_272-115    O    0.64805006    0.92696993    0.86271096    -0.61980000
opls_179-116    O    0.96732001    0.41531989    0.56591091    -0.16920000
opls_154-117    O    0.01472012    0.73388999    0.99141944    -0.58310000
opls_154-118    O    0.07093996    0.75385996    0.36412107    -0.59230000
opls_272-119    O    0.07303008    0.72107996    0.86271096    -0.62000000
opls_146-120    H    0.29937989    0.58899000    0.58076923    0.04760000
opls_146-121    H    0.34476002    0.57999997    0.25906911    0.04760000
opls_146-122    H    0.38746991    0.54506993    0.26830920    0.04770000
opls_146-123    H    0.47135990    0.63741996    0.91248890    0.04760000
opls_146-124    H    0.42722988    0.67038002    0.91053029    0.04760000
opls_144-125    H    0.40987989    0.50985983    0.60335095    0.02810000
opls_146-126    H    0.47205001    0.42293996    0.59767943    0.04760000
opls_185-127    H    0.58354995    0.59733002    0.29719977    0.04340000
opls_185-128    H    0.60391011    0.61351004    0.68082031    0.04340000
opls_140-129    H    0.64468005    0.58972989    0.16665926    0.11510000
opls_140-130    H    0.66484988    0.60432001    0.55035086    0.11510000
opls_140-131    H    0.67249993    0.67375983    0.48742894    0.12110000
opls_140-132    H    0.65010983    0.66045992    0.11007950    0.12110000
opls_796-133    H    0.70971998    0.72654999    0.05190087    0.24190000
opls_796-134    H    0.74568992    0.69420006    0.56603971    0.24060000
opls_146-135    H    0.41100990    0.71038990    0.58076923    0.04760000
opls_146-136    H    0.41999979    0.76475983    0.25906911    0.04760000
opls_146-137    H    0.45493005    0.84240992    0.26830920    0.04760000
opls_146-138    H    0.36257995    0.83393984    0.91248890    0.04760000
opls_146-139    H    0.32961987    0.75684989    0.91053029    0.04760000
opls_144-140    H    0.49014011    0.90002009    0.60335095    0.02810000
opls_146-141    H    0.57705989    0.04911003    0.59767943    0.04760000
opls_185-142    H    0.40266991    0.98620989    0.29719977    0.04340000
opls_185-143    H    0.38648999    0.99040014    0.68082031    0.04340000
opls_140-144    H    0.41027003    0.05495001    0.16665926    0.11510000
opls_140-145    H    0.39567991    0.06052986    0.55035086    0.11520000
opls_140-146    H    0.32623989    0.99873004    0.48742894    0.12110000
opls_140-147    H    0.33954010    0.98965013    0.11007950    0.12110000
opls_796-148    H    0.25748991    0.01875001    0.11379908    0.24180000
opls_796-149    H    0.34656011    0.09588996    0.45315998    0.24060000
opls_146-150    H    0.28960994    0.70062010    0.58076923    0.04760000
opls_146-151    H    0.23524003    0.65523989    0.25906911    0.04760000
opls_146-152    H    0.15759008    0.61252997    0.26830920    0.04710000
opls_146-153    H    0.16606000    0.52863990    0.91248890    0.04760000
opls_146-154    H    0.24314999    0.57277009    0.91053029    0.04760000
opls_144-155    H    0.09998000    0.59012008    0.60335095    0.02810000
opls_146-156    H    0.95089010    0.52795001    0.59767943    0.04760000
opls_185-157    H    0.01378996    0.41644997    0.29719977    0.04340000
opls_185-158    H    0.00960005    0.39609012    0.68082031    0.04340000
opls_140-159    H    0.94504992    0.35532011    0.16665926    0.11510000
opls_140-160    H    0.93946979    0.33514983    0.55035086    0.11510000
opls_140-161    H    0.00126999    0.32750000    0.48742894    0.12110000
opls_140-162    H    0.01035008    0.34988995    0.11007950    0.12110000
opls_796-163    H    0.01639992    0.28833002    0.07456920    0.24060000
opls_796-164    H    0.93328994    0.26210994    0.57953011    0.24180000
opls_146-165    H    0.70062011    0.41101000    0.58076923    0.04760000
opls_146-166    H    0.65523998    0.42000003    0.25906911    0.04760000
opls_146-167    H    0.61253009    0.45493007    0.26830920    0.04760000
opls_146-168    H    0.52864010    0.36258004    0.91248890    0.04760000
opls_146-169    H    0.57277012    0.32961998    0.91053029    0.04760000
opls_144-170    H    0.59011996    0.49013986    0.60335095    0.02810000
opls_146-171    H    0.52794999    0.57706004    0.59767943    0.04760000
opls_185-172    H    0.41645005    0.40266998    0.29719977    0.04340000
opls_185-173    H    0.39608989    0.38648996    0.68082031    0.04340000
opls_140-174    H    0.35531995    0.41027011    0.16665926    0.11510000
opls_140-175    H    0.33515012    0.39567999    0.55035086    0.11510000
opls_140-176    H    0.32749991    0.32623986    0.48742894    0.12120000
opls_140-177    H    0.34989017    0.33954008    0.11007950    0.12110000
opls_796-178    H    0.23238010    0.26053998    0.00932004    0.24060000
opls_796-179    H    0.26046984    0.34031985    0.54284065    0.24060000
opls_146-180    H    0.58899010    0.28961010    0.58076923    0.04760000
opls_146-181    H    0.58000005    0.23523986    0.25906911    0.04760000
opls_146-182    H    0.54506995    0.15759008    0.26830920    0.04760000
opls_146-183    H    0.63741990    0.16605986    0.91248890    0.04760000
opls_146-184    H    0.67038013    0.24315011    0.91053029    0.04760000
opls_144-185    H    0.50985989    0.09997991    0.60335095    0.02810000
opls_146-186    H    0.42294011    0.95088997    0.59767943    0.04760000
opls_185-187    H    0.59732994    0.01378980    0.29719977    0.04340000
opls_185-188    H    0.61351001    0.00959986    0.68082031    0.04340000
opls_140-189    H    0.58972997    0.94504999    0.16665926    0.11510000
opls_140-190    H    0.60431994    0.93946984    0.55035086    0.11510000
opls_140-191    H    0.67376011    0.00126996    0.48742894    0.12110000
opls_140-192    H    0.66045990    0.01034987    0.11007950    0.12110000
opls_796-193    H    0.73219012    0.01366005    0.12730059    0.24060000
opls_796-194    H    0.67951995    0.94011985    0.58497069    0.24060000
opls_146-195    H    0.71039006    0.29937990    0.58076923    0.04760000
opls_146-196    H    0.76475997    0.34476011    0.25906911    0.04760000
opls_146-197    H    0.84240992    0.38747003    0.26830920    0.04710000
opls_146-198    H    0.83394000    0.47136010    0.91248890    0.04760000
opls_146-199    H    0.75685001    0.42722991    0.91053029    0.04760000
opls_144-200    H    0.90002000    0.40987992    0.60335095    0.02810000
opls_146-201    H    0.04910990    0.47204999    0.59767943    0.04760000
opls_185-202    H    0.98621004    0.58355003    0.29719977    0.04340000
opls_185-203    H    0.99039995    0.60390988    0.68082031    0.04340000
opls_140-204    H    0.05495008    0.64467989    0.16665926    0.11510000
opls_140-205    H    0.06053006    0.66484987    0.55035086    0.11510000
opls_140-206    H    0.99873001    0.67250000    0.48742894    0.12120000
opls_140-207    H    0.98964992    0.65011005    0.11007950    0.12110000
opls_796-208    H    0.01814984    0.76071989    0.11814043    0.24180000
opls_796-209    H    0.04864992    0.75734989    0.50470110    0.24070000
F2_P_3+5-210    P    0.72126002    0.67405984    0.11293080    1.42910000
F2_P_3+5-211    P    0.32593984    0.04719988    0.11293080    1.42920000
F2_P_3+5-212    P    0.95279999    0.27873998    0.11293080    1.42930000
F2_P_3+5-213    P    0.27873983    0.32593985    0.11293080    1.42920000
F2_P_3+5-214    P    0.67406001    0.95279982    0.11293080    1.42920000
F2_P_3+5-215    P    0.04720001    0.72126002    0.11293080    1.42920000
