#======================================================================
# Crystal Data Generated By AuToFF
#----------------------------------------------------------------------

data_AuToFF_phase_1

_cell_length_a                         32.2119
_cell_length_b                         32.8959
_cell_length_c                         4.0263
_cell_angle_alpha                      90.00
_cell_angle_beta                       90.00
_cell_angle_gamma                      90.00
_symmetry_space_group_name_H-M_alt     'P 1'
_symmetry_space_group_IT_number        1

loop_
_space_group_symop_operation_xyz
   'x, y, z'

loop_
   _atom_site_label
   _atom_site_type_symbol
   _atom_site_fract_x
   _atom_site_fract_y
   _atom_site_fract_z
   _atom_site_charge
opls_145-0    C    0.23086996    0.69822014    0.10182053    -0.16450000
opls_700-1    C    0.27243006    0.68785989    0.15459106    0.02000000
opls_700-2    C    0.30255992    0.71965990    0.12690063    0.02280000
opls_700-3    C    0.29003008    0.76056986    0.09509972    0.01370000
opls_700-4    C    0.24737007    0.76958010    0.06398927    0.02070000
opls_700-5    C    0.21732993    0.73776002    0.03826093    0.02700000
opls_145-6    C    0.34547015    0.71112996    0.11965080    -0.11660000
opls_700-7    C    0.31945989    0.79175004    0.09390011    0.01370000
opls_700-8    C    0.36223011    0.78263005    0.08173012    0.02220000
opls_145-9    C    0.37422009    0.74148997    0.10456002    -0.11880000
opls_700-10    C    0.39245000    0.81437991    0.05672950    0.02190000
opls_145-11    C    0.37842009    0.85440009    0.08847080    -0.16670000
opls_700-12    C    0.33667992    0.86481993    0.12762089    0.02310000
opls_700-13    C    0.30679997    0.83279010    0.10490028    0.02070000
opls_145-14    C    0.26397015    0.84126988    0.08328987    -0.11610000
opls_145-15    C    0.23531987    0.81080986    0.06967936    -0.11720000
opls_700-16    C    0.43571009    0.80766995    0.00763977    0.06670000
opls_145-17    C    0.46611997    0.83307008    0.16433947    -0.12400000
opls_145-18    C    0.45170015    0.77708012    0.78859996    -0.12390000
opls_145-19    C    0.50779991    0.82797005    0.10742121    -0.11310000
opls_145-20    C    0.49362999    0.77192994    0.74235899    -0.11000000
opls_700-21    C    0.52306011    0.79719996    0.89824901    0.06280000
opls_700-22    C    0.32638994    0.90631994    0.18922087    0.06670000
opls_145-23    C    0.29405002    0.91837007    0.41300946    -0.12400000
opls_145-24    C    0.34967015    0.93882004    0.04246082    -0.12390000
opls_145-25    C    0.28537000    0.95860001    0.47247100    -0.10990000
opls_145-26    C    0.34106992    0.97880009    0.11230907    -0.10930000
opls_700-27    C    0.30858006    0.99015014    0.32710926    0.06140000
opls_700-28    C    0.17485991    0.74405990    0.94909967    0.07130000
opls_145-29    C    0.16201994    0.77449013    0.71661078    -0.13250000
opls_145-30    C    0.14237999    0.71877012    0.07744083    -0.12400000
opls_145-31    C    0.12103012    0.77981998    0.63352954    -0.11130000
opls_145-32    C    0.10171986    0.72396986    0.98408961    -0.10930000
opls_700-33    C    0.08952002    0.75469010    0.76109083    0.06450000
opls_700-34    C    0.28230002    0.64643010    0.22323970    0.06670000
opls_145-35    C    0.31420997    0.63443013    0.45088046    -0.12410000
opls_145-36    C    0.25922004    0.61386009    0.07541912    -0.12400000
opls_145-37    C    0.32283007    0.59419989    0.51181978    -0.10930000
opls_145-38    C    0.26772994    0.57391985    0.14663090    -0.10960000
opls_700-39    C    0.29987986    0.56258987    0.36457045    0.06140000
opls_142-40    C    0.56756013    0.79352989    0.85224896    0.07950000
opls_142-41    C    0.30951015    0.52054998    0.44213049    0.07600000
opls_145-42    C    0.62493985    0.75831000    0.60854879    0.21020000
opls_145-43    C    0.64180008    0.71900997    0.59072101    -0.15750000
opls_145-44    C    0.65162999    0.79141990    0.55161066    -0.15800000
opls_145-45    C    0.68325991    0.71273989    0.52830887    -0.11630000
opls_145-46    C    0.69310007    0.78585994    0.48540099    -0.12380000
opls_700-47    C    0.71096986    0.74607991    0.48022005    0.06990000
opls_700-48    C    0.75520010    0.74033998    0.46038050    0.07130000
opls_145-49    C    0.77535010    0.70811986    0.63539975    -0.12230000
opls_145-50    C    0.78140004    0.76854988    0.29196036    -0.12120000
opls_145-51    C    0.81758015    0.70564994    0.65250975    -0.12170000
opls_145-52    C    0.82363009    0.76562003    0.30682016    -0.12190000
opls_700-53    C    0.84388006    0.73462012    0.49398952    0.07430000
opls_700-54    C    0.88867996    0.73413009    0.53958970    0.07590000
opls_145-55    C    0.90925993    0.70164002    0.70618931    -0.11920000
opls_145-56    C    0.91433011    0.76717007    0.43795048    -0.11960000
opls_145-57    C    0.95101996    0.70310008    0.77490997    -0.15570000
opls_145-58    C    0.95615999    0.76803006    0.50598068    -0.15510000
opls_145-59    C    0.97574002    0.73616986    0.67811887    0.21090000
opls_145-60    C    0.29010987    0.44954994    0.34975039    0.21110000
opls_145-61    C    0.26031994    0.42458999    0.19789882    -0.15900000
opls_145-62    C    0.32184007    0.43036001    0.53139110    -0.15770000
opls_145-63    C    0.26187993    0.38296991    0.22278022    -0.11890000
opls_145-64    C    0.32369000    0.38872990    0.55960063    -0.12220000
opls_700-65    C    0.29389015    0.36292000    0.40430917    0.07450000
opls_700-66    C    0.29644014    0.31877985    0.42306087    0.07400000
opls_145-67    C    0.33089014    0.29863995    0.57354892    -0.12120000
opls_145-68    C    0.26518988    0.29328001    0.28294961    -0.12080000
opls_145-69    C    0.33430999    0.25729012    0.57710056    -0.12210000
opls_145-70    C    0.26824993    0.25192988    0.28689119    -0.12150000
opls_700-71    C    0.30330002    0.23192009    0.43108064    0.07130000
opls_700-72    C    0.30797997    0.18855997    0.41430097    0.06980000
opls_145-73    C    0.27295999    0.16193994    0.42589971    -0.11970000
opls_145-74    C    0.34776992    0.17010995    0.36662941    -0.12360000
opls_145-75    C    0.27759989    0.12066002    0.38885081    -0.15770000
opls_145-76    C    0.35154989    0.12880997    0.32607108    -0.15700000
opls_145-77    C    0.31688010    0.10298001    0.33752080    0.20970000
opls_142-78    C    0.29862008    0.03211008    0.40434891    0.07620000
opls_142-79    C    0.04690999    0.76100000    0.65643891    0.07950000
opls_750-80    N    0.58254993    0.76360002    0.68032933    -0.26010000
opls_750-81    N    0.28702001    0.49196009    0.31240096    -0.27460000
opls_750-82    N    0.01831994    0.73608991    0.75665003    -0.26890000
opls_750-83    N    0.32236999    0.06091002    0.29355984    -0.25990000
opls_146-84    H    0.20777011    0.67364991    0.10220053    0.07510000
opls_146-85    H    0.35699012    0.67975006    0.12436977    0.08340000
opls_146-86    H    0.40707999    0.73276001    0.11302933    0.08650000
opls_146-87    H    0.40159010    0.87891987    0.08800884    0.06960000
opls_146-88    H    0.25252003    0.87266012    0.07427911    0.08340000
opls_146-89    H    0.20245003    0.81954985    0.06563098    0.08650000
opls_146-90    H    0.45616992    0.85679006    0.33963937    0.12380000
opls_146-91    H    0.43006001    0.75781997    0.64790006    0.07840000
opls_146-92    H    0.52940994    0.84830997    0.23801008    0.10920000
opls_146-93    H    0.50377997    0.74796008    0.57009910    0.12370000
opls_146-94    H    0.27631000    0.89501002    0.54691901    0.06660000
opls_146-95    H    0.37459014    0.93195991    0.86428979    0.08470000
opls_146-96    H    0.26026996    0.96571001    0.64831980    0.12370000
opls_146-97    H    0.36004986    0.00210999    0.98876884    0.12000000
opls_146-98    H    0.18545010    0.79366000    0.59531083    0.07460000
opls_146-99    H    0.14956988    0.69511003    0.26162978    0.10840000
opls_146-100    H    0.11344006    0.80368009    0.45207014    0.10600000
opls_146-101    H    0.07847007    0.70352992    0.09422050    0.10600000
opls_146-102    H    0.33180005    0.65779991    0.58586047    0.06920000
opls_146-103    H    0.23465986    0.62058007    0.89368899    0.12610000
opls_146-104    H    0.34767989    0.58715007    0.69008022    0.10600000
opls_146-105    H    0.24885989    0.55064005    0.02159054    0.10840000
opls_144-106    H    0.58720007    0.81686988    0.96930929    0.07010000
opls_144-107    H    0.33562007    0.51475989    0.61209050    0.07010000
opls_146-108    H    0.62161003    0.69255986    0.63209895    0.06660000
opls_146-109    H    0.63944008    0.82260008    0.55921069    0.07700000
opls_146-110    H    0.69528994    0.68147003    0.52478951    0.07090000
opls_146-111    H    0.71307001    0.81270006    0.45485930    0.07090000
opls_146-112    H    0.75667998    0.68625999    0.77854109    0.07730000
opls_146-113    H    0.76743998    0.79349007    0.14817078    0.09970000
opls_146-114    H    0.83064985    0.68137002    0.80792042    0.06510000
opls_146-115    H    0.84168987    0.78857000    0.17121923    0.06520000
opls_146-116    H    0.89207001    0.67487012    0.79304076    0.08930000
opls_146-117    H    0.90111015    0.79355999    0.30861088    0.06950000
opls_146-118    H    0.96517001    0.67765010    0.91101011    0.11680000
opls_146-119    H    0.97408008    0.79455008    0.42298885    0.11440000
opls_146-120    H    0.23517986    0.43846011    0.05160073    0.07730000
opls_146-121    H    0.34578991    0.44846987    0.65729081    0.07510000
opls_146-122    H    0.23784005    0.36575987    0.09003055    0.11410000
opls_146-123    H    0.34913991    0.37608000    0.70903062    0.07700000
opls_146-124    H    0.35620997    0.31601993    0.68894022    0.11420000
opls_146-125    H    0.23770004    0.30627008    0.16083998    0.07090000
opls_146-126    H    0.36154992    0.24324004    0.69589946    0.08230000
opls_146-127    H    0.24399989    0.23377989    0.16397934    0.08360000
opls_146-128    H    0.24171005    0.17461994    0.46371110    0.09970000
opls_146-129    H    0.37561988    0.18931995    0.34956908    0.11160000
opls_146-130    H    0.24969996    0.10148012    0.39668927    0.06510000
opls_146-131    H    0.38258004    0.11581990    0.28446961    0.12370000
opls_144-132    H    0.27111006    0.03776002    0.55993095    0.07070000
opls_144-133    H    0.04086999    0.78659012    0.48717930    0.07040000
