#======================================================================
# Crystal Data Generated By AuToFF
#----------------------------------------------------------------------

data_AuToFF_phase_1

_cell_length_a                         34.5996
_cell_length_b                         34.5996
_cell_length_c                         3.5779
_cell_angle_alpha                      90.00
_cell_angle_beta                       90.00
_cell_angle_gamma                      120.00
_symmetry_space_group_name_H-M_alt     'P 1'
_symmetry_space_group_IT_number        1

loop_
_space_group_symop_operation_xyz
   'x, y, z'

loop_
   _atom_site_label
   _atom_site_type_symbol
   _atom_site_fract_x
   _atom_site_fract_y
   _atom_site_fract_z
   _atom_site_charge
opls_280-0    C    0.30314013    0.68498001    0.00000000    0.27790000
opls_145-1    C    0.35179995    0.71573011    0.00000000    -0.20740000
opls_142-2    C    0.36685005    0.75931022    0.00000000    0.10540000
opls_916-3    C    0.59328003    0.43189006    0.00000000    0.17140000
opls_145-4    C    0.61029995    0.47636991    0.84632885    -0.14470000
opls_145-5    C    0.58358017    0.49609016    0.85521116    -0.13980000
opls_700-6    C    0.53933013    0.47153013    0.00000000    0.12030000
opls_145-7    C    0.52206987    0.42738000    0.09418933    -0.08340000
opls_145-8    C    0.54886995    0.40770014    0.08923111    -0.18090000
opls_261-9    C    0.51160998    0.49159011    0.00000000    -0.12160000
opls_280-10    C    0.31502001    0.61816011    0.00000000    0.27790000
opls_145-11    C    0.28426997    0.63607019    0.00000000    -0.20740000
opls_142-12    C    0.24069012    0.60754008    0.00000000    0.10540000
opls_916-13    C    0.56810987    0.16138997    0.00000000    0.17140000
opls_145-14    C    0.52363017    0.13393014    0.84632885    -0.14470000
opls_145-15    C    0.50390983    0.08748994    0.85521116    -0.13980000
opls_700-16    C    0.52846991    0.06780007    0.00000000    0.12030000
opls_145-17    C    0.57261980    0.09468988    0.09418933    -0.08340000
opls_145-18    C    0.59230005    0.14117013    0.08923111    -0.18090000
opls_261-19    C    0.50840995    0.02001994    0.00000000    -0.12160000
opls_280-20    C    0.38184003    0.69686021    0.00000000    0.27790000
opls_145-21    C    0.36392996    0.64820003    0.00000000    -0.20740000
opls_142-22    C    0.39246000    0.63315004    0.00000000    0.10540000
opls_916-23    C    0.83861010    0.40671997    0.00000000    0.17140000
opls_145-24    C    0.86606987    0.38969995    0.84632885    -0.14470000
opls_145-25    C    0.91251000    0.41641990    0.85521116    -0.13980000
opls_700-26    C    0.93220012    0.46067014    0.00000000    0.12030000
opls_145-27    C    0.90531004    0.47793011    0.09418933    -0.08340000
opls_145-28    C    0.85883016    0.45113007    0.08923111    -0.18090000
opls_261-29    C    0.97998007    0.48838995    0.00000000    -0.12160000
opls_280-30    C    0.69685987    0.31501999    0.00000000    0.27790000
opls_145-31    C    0.64820005    0.28426989    0.00000000    -0.20740000
opls_142-32    C    0.63315012    0.24069012    0.00000000    0.10540000
opls_916-33    C    0.40671997    0.56810994    0.00000000    0.17140000
opls_145-34    C    0.38970005    0.52363009    0.84632885    -0.14470000
opls_145-35    C    0.41641999    0.50391018    0.85521116    -0.13980000
opls_700-36    C    0.46067003    0.52847021    0.00000000    0.12030000
opls_145-37    C    0.47793013    0.57262000    0.09418933    -0.08340000
opls_145-38    C    0.45113021    0.59230019    0.08923111    -0.18090000
opls_261-39    C    0.48839002    0.50840989    0.00000000    -0.12160000
opls_280-40    C    0.68497999    0.38183989    0.00000000    0.27790000
opls_145-41    C    0.71573020    0.36393014    0.00000000    -0.20740000
opls_142-42    C    0.75930988    0.39245992    0.00000000    0.10540000
opls_916-43    C    0.43189013    0.83861003    0.00000000    0.17140000
opls_145-44    C    0.47636999    0.86607020    0.84632885    -0.14470000
opls_145-45    C    0.49609017    0.91251006    0.85521116    -0.13980000
opls_700-46    C    0.47153009    0.93219993    0.00000000    0.12030000
opls_145-47    C    0.42738020    0.90531012    0.09418933    -0.08340000
opls_145-48    C    0.40770011    0.85883021    0.08923111    -0.18090000
opls_261-49    C    0.49159005    0.97998006    0.00000000    -0.12160000
opls_280-50    C    0.61816014    0.30314012    0.00000000    0.27790000
opls_145-51    C    0.63607004    0.35179997    0.00000000    -0.20740000
opls_142-52    C    0.60754000    0.36684996    0.00000000    0.10540000
opls_916-53    C    0.16138990    0.59328003    0.00000000    0.17140000
opls_145-54    C    0.13393013    0.61030005    0.84632885    -0.14470000
opls_145-55    C    0.08749000    0.58358010    0.85521116    -0.13980000
opls_700-56    C    0.06780005    0.53933019    0.00000000    0.12030000
opls_145-57    C    0.09468996    0.52206989    0.09418933    -0.08340000
opls_145-58    C    0.14116984    0.54886993    0.08923111    -0.18090000
opls_261-59    C    0.02001993    0.51161005    0.00000000    -0.12160000
opls_281-60    O    0.27954011    0.69968993    0.00000000    -0.37320000
opls_281-61    O    0.30031008    0.57984997    0.00000000    -0.37320000
opls_281-62    O    0.42015011    0.72046010    0.00000000    -0.37320000
opls_281-63    O    0.72045989    0.30031007    0.00000000    -0.37320000
opls_281-64    O    0.69968992    0.42015003    0.00000000    -0.37320000
opls_281-65    O    0.57984989    0.27953990    0.00000000    -0.37320000
opls_238-66    N    0.41279992    0.79086995    0.00000000    -0.23910000
opls_238-67    N    0.20912998    0.62192995    0.00000000    -0.23910000
opls_238-68    N    0.37807010    0.58720010    0.00000000    -0.23910000
opls_238-69    N    0.58720008    0.20913005    0.00000000    -0.23910000
opls_238-70    N    0.79087002    0.37807005    0.00000000    -0.23910000
opls_238-71    N    0.62192990    0.41279990    0.00000000    -0.23910000
opls_144-72    H    0.34269008    0.77031003    0.00000000    0.09480000
opls_910-73    H    0.43294013    0.77903013    0.00000000    0.27950000
opls_146-74    H    0.64434994    0.49579013    0.74798066    0.11160000
opls_146-75    H    0.59730010    0.53033010    0.76366025    0.10830000
opls_146-76    H    0.48796997    0.40825013    0.19274994    0.10700000
opls_146-77    H    0.53458005    0.37393010    0.19105062    0.11390000
opls_144-78    H    0.22968995    0.57238004    0.00000000    0.09480000
opls_910-79    H    0.22097006    0.65391019    0.00000000    0.27950000
opls_146-80    H    0.50421010    0.14855996    0.74798066    0.11160000
opls_146-81    H    0.46967014    0.06697007    0.76366025    0.10830000
opls_146-82    H    0.59174990    0.07971999    0.19274994    0.10700000
opls_146-83    H    0.62607008    0.16065008    0.19105062    0.11390000
opls_144-84    H    0.42761998    0.65730992    0.00000000    0.09480000
opls_910-85    H    0.34608998    0.56706001    0.00000000    0.27950000
opls_146-86    H    0.85143997    0.35564991    0.74798066    0.11160000
opls_146-87    H    0.93303022    0.40270016    0.76366025    0.10830000
opls_146-88    H    0.92027985    0.51202988    0.19274994    0.10700000
opls_146-89    H    0.83935004    0.46542015    0.19105062    0.11390000
opls_144-90    H    0.65730992    0.22968997    0.00000000    0.09480000
opls_910-91    H    0.56705987    0.22096987    0.00000000    0.27950000
opls_146-92    H    0.35565023    0.50421020    0.74798066    0.11160000
opls_146-93    H    0.40269990    0.46966990    0.76366025    0.10830000
opls_146-94    H    0.51203020    0.59175020    0.19274994    0.10700000
opls_146-95    H    0.46541995    0.62606990    0.19105062    0.11390000
opls_144-96    H    0.77031005    0.42761996    0.00000000    0.09480000
opls_910-97    H    0.77903011    0.34609014    0.00000000    0.27950000
opls_146-98    H    0.49578990    0.85144004    0.74798066    0.11160000
opls_146-99    H    0.53032986    0.93302993    0.76366025    0.10830000
opls_146-100    H    0.40825010    0.92028001    0.19274994    0.10700000
opls_146-101    H    0.37392992    0.83934992    0.19105062    0.11390000
opls_144-102    H    0.57238002    0.34269008    0.00000000    0.09480000
opls_910-103    H    0.65391002    0.43293999    0.00000000    0.27950000
opls_146-104    H    0.14856003    0.64435009    0.74798066    0.11160000
opls_146-105    H    0.06696995    0.59730017    0.76366025    0.10830000
opls_146-106    H    0.07972015    0.48797012    0.19274994    0.10700000
opls_146-107    H    0.16065013    0.53458018    0.19105062    0.11390000
