#======================================================================
# Crystal Data Generated By AuToFF
#----------------------------------------------------------------------

data_AuToFF_phase_1

_cell_length_a                         30.9696
_cell_length_b                         30.9696
_cell_length_c                         3.6000
_cell_angle_alpha                      90.00
_cell_angle_beta                       90.00
_cell_angle_gamma                      120.00
_symmetry_space_group_name_H-M_alt     'P 1'
_symmetry_space_group_IT_number        1

loop_
_space_group_symop_operation_xyz
   'x, y, z'

loop_
   _atom_site_label
   _atom_site_type_symbol
   _atom_site_fract_x
   _atom_site_fract_y
   _atom_site_fract_z
   _atom_site_charge
opls_280-0    C    0.29731990    0.68483986    0.00000000    0.37100000
opls_145-1    C    0.27883996    0.63030985    0.00000000    -0.18720000
opls_142-2    C    0.40398997    0.63407003    0.00000000    -0.06850000
opls_234-3    C    0.41847001    0.52050002    0.00000000    0.47800000
opls_700-4    C    0.45951005    0.50901998    0.00000000    -0.23350000
opls_166-5    C    0.50878016    0.54865017    0.00000000    0.16910000
opls_166-6    C    0.54903007    0.54018984    0.00000000    0.15260000
opls_280-7    C    0.70268010    0.31516014    0.00000000    0.37100000
opls_145-8    C    0.72116004    0.36969015    0.00000000    -0.18720000
opls_142-9    C    0.59601003    0.36592997    0.00000000    -0.06850000
opls_234-10    C    0.58152999    0.47949998    0.00000000    0.47800000
opls_700-11    C    0.54048995    0.49098002    0.00000000    -0.23350000
opls_145-12    C    0.49121984    0.45134983    0.00000000    -0.11770000
opls_145-13    C    0.45096993    0.45981016    0.00000000    -0.12360000
opls_280-14    C    0.31516012    0.61248017    0.00000000    0.37100000
opls_145-15    C    0.36968981    0.64852989    0.00000000    -0.18720000
opls_142-16    C    0.36593007    0.76992005    0.00000000    -0.06850000
opls_234-17    C    0.47950011    0.89797006    0.00000000    0.47800000
opls_700-18    C    0.49098013    0.95049004    0.00000000    -0.23350000
opls_166-19    C    0.45135010    0.96013006    0.00000000    0.16910000
opls_166-20    C    0.45981007    0.00883989    0.00000000    0.15260000
opls_280-21    C    0.68483988    0.38751983    0.00000000    0.37100000
opls_145-22    C    0.63031019    0.35147011    0.00000000    -0.18720000
opls_142-23    C    0.63406993    0.23007995    0.00000000    -0.06850000
opls_234-24    C    0.52049989    0.10202994    0.00000000    0.47800000
opls_700-25    C    0.50901987    0.04950996    0.00000000    -0.23350000
opls_145-26    C    0.54864990    0.03986994    0.00000000    -0.11770000
opls_145-27    C    0.54018993    0.99116011    0.00000000    -0.12360000
opls_280-28    C    0.38751998    0.70267997    0.00000000    0.37100000
opls_145-29    C    0.35147004    0.72115989    0.00000000    -0.18720000
opls_142-30    C    0.23007996    0.59600991    0.00000000    -0.06850000
opls_234-31    C    0.10202988    0.58152992    0.00000000    0.47800000
opls_700-32    C    0.04951014    0.54048998    0.00000000    -0.23350000
opls_166-33    C    0.03986992    0.49122014    0.00000000    0.16910000
opls_166-34    C    0.99116000    0.45096989    0.00000000    0.15260000
opls_280-35    C    0.61248002    0.29732003    0.00000000    0.37100000
opls_145-36    C    0.64852996    0.27884011    0.00000000    -0.18720000
opls_142-37    C    0.76992004    0.40399009    0.00000000    -0.06850000
opls_234-38    C    0.89797012    0.41847008    0.00000000    0.47800000
opls_700-39    C    0.95048986    0.45951002    0.00000000    -0.23350000
opls_145-40    C    0.96013008    0.50877986    0.00000000    -0.11770000
opls_145-41    C    0.00884000    0.54903011    0.00000000    -0.12360000
opls_238-42    N    0.39267993    0.58314995    0.00000000    -0.11830000
opls_238-43    N    0.42752992    0.56866996    0.00000000    -0.21520000
opls_238-44    N    0.60732007    0.41685005    0.00000000    -0.11830000
opls_238-45    N    0.57247008    0.43133004    0.00000000    -0.21520000
opls_238-46    N    0.41685013    0.80953011    0.00000000    -0.11830000
opls_238-47    N    0.43132992    0.85885999    0.00000000    -0.21520000
opls_238-48    N    0.58314987    0.19046989    0.00000000    -0.11830000
opls_238-49    N    0.56867008    0.14114001    0.00000000    -0.21520000
opls_238-50    N    0.19046994    0.60731993    0.00000000    -0.11830000
opls_238-51    N    0.14114016    0.57247005    0.00000000    -0.21520000
opls_238-52    N    0.80953006    0.39268007    0.00000000    -0.11830000
opls_238-53    N    0.85885984    0.42752995    0.00000000    -0.21520000
opls_236-54    O    0.37506001    0.48710984    0.00000000    -0.36890000
opls_281-55    O    0.43231009    0.73213994    0.00000000    -0.37000000
opls_167-56    O    0.52236985    0.59534997    0.00000000    -0.41520000
opls_236-57    O    0.62493999    0.51289016    0.00000000    -0.36890000
opls_281-58    O    0.56768991    0.26786006    0.00000000    -0.37000000
opls_167-59    O    0.59742012    0.58102993    0.00000000    -0.40870000
opls_236-60    O    0.51289005    0.88795009    0.00000000    -0.36890000
opls_281-61    O    0.26785982    0.70016994    0.00000000    -0.37000000
opls_167-62    O    0.40464997    0.92701989    0.00000000    -0.41530000
opls_236-63    O    0.48710995    0.11204991    0.00000000    -0.36890000
opls_281-64    O    0.73214018    0.29983006    0.00000000    -0.37000000
opls_167-65    O    0.41897013    0.01639010    0.00000000    -0.40850000
opls_236-66    O    0.11204994    0.62494006    0.00000000    -0.36890000
opls_281-67    O    0.29983009    0.56769011    0.00000000    -0.37000000
opls_167-68    O    0.07298019    0.47763014    0.00000000    -0.41520000
opls_236-69    O    0.88795006    0.37505994    0.00000000    -0.36890000
opls_281-70    O    0.70016991    0.43230989    0.00000000    -0.37010000
opls_167-71    O    0.98361007    0.40257997    0.00000000    -0.40850000
opls_146-72    H    0.41330012    0.42838005    0.00000000    0.12440000
opls_144-73    H    0.44525005    0.66348004    0.00000000    0.02590000
opls_910-74    H    0.36394009    0.55979018    0.00000000    0.28530000
opls_910-75    H    0.45875991    0.59482015    0.00000000    0.28720000
opls_144-76    H    0.55474995    0.33651996    0.00000000    0.02590000
opls_910-77    H    0.63605991    0.44020982    0.00000000    0.28530000
opls_910-78    H    0.54124009    0.40517985    0.00000000    0.28720000
opls_146-79    H    0.48054000    0.41258987    0.00000000    0.10260000
opls_146-80    H    0.57161993    0.98492009    0.00000000    0.12440000
opls_144-81    H    0.33652006    0.78176996    0.00000000    0.02590000
opls_910-82    H    0.44021008    0.80414989    0.00000000    0.28530000
opls_910-83    H    0.40517989    0.86394007    0.00000000    0.28720000
opls_144-84    H    0.66347994    0.21823004    0.00000000    0.02590000
opls_910-85    H    0.55978992    0.19585011    0.00000000    0.28530000
opls_910-86    H    0.59482011    0.13605993    0.00000000    0.28720000
opls_146-87    H    0.58740998    0.06794999    0.00000000    0.10260000
opls_146-88    H    0.01507995    0.58669986    0.00000000    0.12440000
opls_144-89    H    0.21822990    0.55474999    0.00000000    0.02590000
opls_910-90    H    0.19584983    0.63605993    0.00000000    0.28530000
opls_910-91    H    0.13606006    0.54124016    0.00000000    0.28720000
opls_144-92    H    0.78177010    0.44525001    0.00000000    0.02590000
opls_910-93    H    0.80415017    0.36394007    0.00000000    0.28530000
opls_910-94    H    0.86393994    0.45875984    0.00000000    0.28720000
opls_146-95    H    0.93205002    0.51946014    0.00000000    0.10260000
opls_168-96    H    0.94832018    0.38033017    0.00000000    0.38370000
opls_168-97    H    0.06803006    0.44386002    0.00000000    0.35790000
opls_168-98    H    0.61966993    0.56798989    0.00000000    0.38370000
opls_168-99    H    0.55614020    0.62417013    0.00000000    0.36760000
opls_168-100    H    0.43200990    0.05167995    0.00000000    0.38370000
opls_168-101    H    0.37583006    0.93196985    0.00000000    0.35790000
