#======================================================================
# Crystal Data Generated By AuToFF
#----------------------------------------------------------------------

data_AuToFF_phase_1

_cell_length_a                         38.2700
_cell_length_b                         38.2700
_cell_length_c                         6.8800
_cell_angle_alpha                      90.00
_cell_angle_beta                       90.00
_cell_angle_gamma                      120.00
_symmetry_space_group_name_H-M_alt     'P 1'
_symmetry_space_group_IT_number        1

loop_
_space_group_symop_operation_xyz
   'x, y, z'

loop_
   _atom_site_label
   _atom_site_type_symbol
   _atom_site_fract_x
   _atom_site_fract_y
   _atom_site_fract_z
   _atom_site_charge
opls_146-0    H    0.37963991    0.55199004    0.00000000    0.08510000
opls_146-1    H    0.41111001    0.51332009    0.00000000    0.10390000
opls_146-2    H    0.52733014    0.62305014    0.00000000    0.23320000
opls_146-3    H    0.49412995    0.66076996    0.00000000    0.12220000
opls_910-4    H    0.43662986    0.66574993    0.00000000    0.25230000
opls_144-5    H    0.35380016    0.58866016    0.00000000    0.09910000
opls_146-6    H    0.43797008    0.47920015    0.00000000    0.10430000
opls_146-7    H    0.46629999    0.43881007    0.00000000    0.10420000
opls_144-8    H    0.76137999    0.34364005    0.00000000    0.09980000
opls_910-9    H    0.77617999    0.43012010    0.00000000    0.25230000
opls_146-10    H    0.82299995    0.36377987    0.00000000    0.08510000
opls_146-11    H    0.89213988    0.38877988    0.00000000    0.23320000
opls_146-12    H    0.91190995    0.51047996    0.00000000    0.10420000
opls_146-13    H    0.84133006    0.48355012    0.00000000    0.09700000
opls_146-14    H    0.44801000    0.82765000    0.00000000    0.08510000
opls_146-15    H    0.48668002    0.89779014    0.00000000    0.10390000
opls_146-16    H    0.37695000    0.90427994    0.00000000    0.23320000
opls_146-17    H    0.33923009    0.83335018    0.00000000    0.12220000
opls_910-18    H    0.33424996    0.77086992    0.00000000    0.25230000
opls_144-19    H    0.41134014    0.76514017    0.00000000    0.09910000
opls_146-20    H    0.52079990    0.95876992    0.00000000    0.10420000
opls_146-21    H    0.56119007    0.02749014    0.00000000    0.10420000
opls_144-22    H    0.65635995    0.41774003    0.00000000    0.09980000
opls_910-23    H    0.56987994    0.34604993    0.00000000    0.25240000
opls_146-24    H    0.63621985    0.45921994    0.00000000    0.08510000
opls_146-25    H    0.61122002    0.50334990    0.00000000    0.23320000
opls_146-26    H    0.48952005    0.40142004    0.00000000    0.10420000
opls_146-27    H    0.51645001    0.35778008    0.00000000    0.09700000
opls_146-28    H    0.17235009    0.62035996    0.00000000    0.08510000
opls_146-29    H    0.10221013    0.58889007    0.00000000    0.10400000
opls_146-30    H    0.09571986    0.47266992    0.00000000    0.23320000
opls_146-31    H    0.16664987    0.50586990    0.00000000    0.08280000
opls_910-32    H    0.22912994    0.56336989    0.00000000    0.25230000
opls_144-33    H    0.23486011    0.64619997    0.00000000    0.09900000
opls_146-34    H    0.04123002    0.56202993    0.00000000    0.10420000
opls_146-35    H    0.97251009    0.53370009    0.00000000    0.23370000
opls_144-36    H    0.58226005    0.23861992    0.00000000    0.09980000
opls_910-37    H    0.65394999    0.22382002    0.00000000    0.25230000
opls_146-38    H    0.54078006    0.17699988    0.00000000    0.08520000
opls_146-39    H    0.49664986    0.10785996    0.00000000    0.23320000
opls_146-40    H    0.59857991    0.08809005    0.00000000    0.10420000
opls_146-41    H    0.64222008    0.15867011    0.00000000    0.09710000
opls_146-42    H    0.37963991    0.55199004    0.50000000    0.08510000
opls_146-43    H    0.41111001    0.51332009    0.50000000    0.10390000
opls_146-44    H    0.52733014    0.62305014    0.50000000    0.23320000
opls_146-45    H    0.49412995    0.66076996    0.50000000    0.12220000
opls_910-46    H    0.43662986    0.66574993    0.50000000    0.25240000
opls_144-47    H    0.35380016    0.58866016    0.50000000    0.09900000
opls_146-48    H    0.43797008    0.47920015    0.50000000    0.10420000
opls_146-49    H    0.46629999    0.43881007    0.50000000    0.10420000
opls_144-50    H    0.76137999    0.34364005    0.50000000    0.09980000
opls_910-51    H    0.77617999    0.43012010    0.50000000    0.25230000
opls_146-52    H    0.82299995    0.36377987    0.50000000    0.08510000
opls_146-53    H    0.89213988    0.38877988    0.50000000    0.23320000
opls_146-54    H    0.91190995    0.51047996    0.50000000    0.10420000
opls_146-55    H    0.84133006    0.48355012    0.50000000    0.09700000
opls_146-56    H    0.44801000    0.82765000    0.50000000    0.08510000
opls_146-57    H    0.48668002    0.89779014    0.50000000    0.10390000
opls_146-58    H    0.37695000    0.90427994    0.50000000    0.23320000
opls_146-59    H    0.33923009    0.83335018    0.50000000    0.12220000
opls_910-60    H    0.33424996    0.77086992    0.50000000    0.25230000
opls_144-61    H    0.41134014    0.76514017    0.50000000    0.09900000
opls_146-62    H    0.52079990    0.95876992    0.50000000    0.10420000
opls_146-63    H    0.56119007    0.02749014    0.50000000    0.10420000
opls_144-64    H    0.65635995    0.41774003    0.50000000    0.09980000
opls_910-65    H    0.56987994    0.34604993    0.50000000    0.25230000
opls_146-66    H    0.63621985    0.45921994    0.50000000    0.08510000
opls_146-67    H    0.61122002    0.50334990    0.50000000    0.23320000
opls_146-68    H    0.48952005    0.40142004    0.50000000    0.10430000
opls_146-69    H    0.51645001    0.35778008    0.50000000    0.09700000
opls_146-70    H    0.17235009    0.62035996    0.50000000    0.08510000
opls_146-71    H    0.10221013    0.58889007    0.50000000    0.10390000
opls_146-72    H    0.09571986    0.47266992    0.50000000    0.23320000
opls_146-73    H    0.16664987    0.50586990    0.50000000    0.08280000
opls_910-74    H    0.22912994    0.56336989    0.50000000    0.25230000
opls_144-75    H    0.23486011    0.64619997    0.50000000    0.09900000
opls_146-76    H    0.04123002    0.56202993    0.50000000    0.10420000
opls_146-77    H    0.97251009    0.53370009    0.50000000    0.23370000
opls_144-78    H    0.58226005    0.23861992    0.50000000    0.09980000
opls_910-79    H    0.65394999    0.22382002    0.50000000    0.25230000
opls_146-80    H    0.54078006    0.17699988    0.50000000    0.08510000
opls_146-81    H    0.49664986    0.10785996    0.50000000    0.23320000
opls_146-82    H    0.59857991    0.08809005    0.50000000    0.10420000
opls_146-83    H    0.64222008    0.15867011    0.50000000    0.09700000
opls_145-84    C    0.41191993    0.56804994    0.00000000    -0.17680000
opls_145-85    C    0.43097000    0.54519007    0.00000000    -0.13220000
opls_700-86    C    0.47340013    0.56313002    0.00000000    0.05830000
opls_145-87    C    0.49527018    0.60568015    0.00000000    -0.13590000
opls_145-88    C    0.47606001    0.62835989    0.00000000    -0.17680000
opls_916-89    C    0.43428007    0.61006994    0.00000000    0.19600000
opls_142-90    C    0.37354991    0.62070996    0.00000000    0.04620000
opls_145-91    C    0.35565018    0.64377018    0.00000000    -0.12030000
opls_280-92    C    0.37756008    0.68853014    0.00000000    0.30970000
opls_700-93    C    0.49352007    0.53743001    0.00000000    0.01210000
opls_145-94    C    0.47018983    0.49500993    0.00000000    -0.13810000
opls_145-95    C    0.48741998    0.47044018    0.00000000    -0.13810000
opls_700-96    C    0.52945996    0.48616999    0.00000000    0.00800000
opls_716-97    C    0.55265009    0.52871017    0.00000000    0.10110000
opls_716-98    C    0.53563004    0.55297004    0.00000000    0.10110000
opls_145-99    C    0.64832990    0.35996004    0.00000000    -0.12030000
opls_280-100    C    0.62268001    0.31536995    0.00000000    0.31090000
opls_142-101    C    0.75209012    0.36583009    0.00000000    0.04620000
opls_916-102    C    0.82597003    0.42163016    0.00000000    0.20670000
opls_145-103    C    0.84190007    0.39589003    0.00000000    -0.17700000
opls_145-104    C    0.88340991    0.41116997    0.00000000    -0.13940000
opls_700-105    C    0.91115999    0.45299988    0.00000000    0.05860000
opls_145-106    C    0.89420002    0.47833993    0.00000000    -0.14040000
opls_145-107    C    0.85272992    0.46291999    0.00000000    -0.17680000
opls_145-108    C    0.43194995    0.84387011    0.00000000    -0.17680000
opls_145-109    C    0.45481003    0.88577998    0.00000000    -0.13860000
opls_700-110    C    0.43687007    0.91026012    0.00000000    0.05830000
opls_145-111    C    0.39432004    0.88959016    0.00000000    -0.13600000
opls_145-112    C    0.37163987    0.84769991    0.00000000    -0.17680000
opls_916-113    C    0.38992994    0.82421003    0.00000000    0.20670000
opls_142-114    C    0.37928990    0.75284006    0.00000000    0.04620000
opls_145-115    C    0.35623004    0.71187006    0.00000000    -0.12030000
opls_280-116    C    0.31147011    0.68903010    0.00000000    0.31090000
opls_700-117    C    0.46256995    0.95609000    0.00000000    0.00810000
opls_145-118    C    0.50499011    0.97518012    0.00000000    -0.13800000
opls_145-119    C    0.52955995    0.01696991    0.00000000    -0.13810000
opls_700-120    C    0.51382998    0.04328996    0.00000000    0.00800000
opls_716-121    C    0.47129012    0.02394005    0.00000000    0.10110000
opls_716-122    C    0.44703012    0.98266018    0.00000000    0.10110000
opls_145-123    C    0.64004003    0.28837011    0.00000000    -0.12030000
opls_280-124    C    0.68462990    0.30730998    0.00000000    0.31090000
opls_142-125    C    0.63416992    0.38625988    0.00000000    0.04620000
opls_916-126    C    0.57837021    0.40433017    0.00000000    0.20670000
opls_145-127    C    0.60411009    0.44600017    0.00000000    -0.17690000
opls_145-128    C    0.58882994    0.47223997    0.00000000    -0.13940000
opls_700-129    C    0.54700002    0.45815002    0.00000000    0.05880000
opls_145-130    C    0.52166005    0.41585002    0.00000000    -0.14000000
opls_145-131    C    0.53708006    0.38980997    0.00000000    -0.16970000
opls_145-132    C    0.15612986    0.58807994    0.00000000    -0.17680000
opls_145-133    C    0.11421996    0.56902995    0.00000000    -0.13230000
opls_700-134    C    0.08973998    0.52659990    0.00000000    0.05830000
opls_145-135    C    0.11040994    0.50472999    0.00000000    -0.13590000
opls_145-136    C    0.15229997    0.52393990    0.00000000    -0.17700000
opls_916-137    C    0.17578998    0.56572003    0.00000000    0.20680000
opls_142-138    C    0.24715992    0.62644998    0.00000000    0.04620000
opls_145-139    C    0.28813011    0.64435010    0.00000000    -0.12030000
opls_280-140    C    0.31096996    0.62244005    0.00000000    0.30980000
opls_700-141    C    0.04390997    0.50647999    0.00000000    0.00810000
opls_145-142    C    0.02482005    0.52980995    0.00000000    -0.13810000
opls_145-143    C    0.98302999    0.51257996    0.00000000    -0.13810000
opls_700-144    C    0.95671006    0.47054005    0.00000000    0.00810000
opls_716-145    C    0.97605994    0.44735009    0.00000000    0.10110000
opls_716-146    C    0.01733999    0.46437008    0.00000000    0.10120000
opls_145-147    C    0.71162995    0.35167015    0.00000000    -0.12020000
opls_280-148    C    0.69269009    0.37732007    0.00000000    0.31090000
opls_142-149    C    0.61373996    0.24791003    0.00000000    0.04620000
opls_916-150    C    0.59567009    0.17403001    0.00000000    0.19600000
opls_145-151    C    0.55400017    0.15810015    0.00000000    -0.17700000
opls_145-152    C    0.52776015    0.11659006    0.00000000    -0.13930000
opls_700-153    C    0.54185017    0.08884014    0.00000000    0.05880000
opls_145-154    C    0.58415011    0.10580009    0.00000000    -0.14030000
opls_145-155    C    0.61019002    0.14727004    0.00000000    -0.16970000
opls_145-156    C    0.41191993    0.56804994    0.50000000    -0.17680000
opls_145-157    C    0.43097000    0.54519007    0.50000000    -0.13230000
opls_700-158    C    0.47340013    0.56313002    0.50000000    0.05830000
opls_145-159    C    0.49527018    0.60568015    0.50000000    -0.13590000
opls_145-160    C    0.47606001    0.62835989    0.50000000    -0.17680000
opls_916-161    C    0.43428007    0.61006994    0.50000000    0.19600000
opls_142-162    C    0.37354991    0.62070996    0.50000000    0.04620000
opls_145-163    C    0.35565018    0.64377018    0.50000000    -0.12030000
opls_280-164    C    0.37756008    0.68853014    0.50000000    0.30970000
opls_700-165    C    0.49352007    0.53743001    0.50000000    0.01210000
opls_145-166    C    0.47018983    0.49500993    0.50000000    -0.13810000
opls_145-167    C    0.48741998    0.47044018    0.50000000    -0.13810000
opls_700-168    C    0.52945996    0.48616999    0.50000000    0.00800000
opls_716-169    C    0.55265009    0.52871017    0.50000000    0.10110000
opls_716-170    C    0.53563004    0.55297004    0.50000000    0.10110000
opls_145-171    C    0.64832990    0.35996004    0.50000000    -0.12030000
opls_280-172    C    0.62268001    0.31536995    0.50000000    0.31090000
opls_142-173    C    0.75209012    0.36583009    0.50000000    0.04620000
opls_916-174    C    0.82597003    0.42163016    0.50000000    0.20670000
opls_145-175    C    0.84190007    0.39589003    0.50000000    -0.17690000
opls_145-176    C    0.88340991    0.41116997    0.50000000    -0.13940000
opls_700-177    C    0.91115999    0.45299988    0.50000000    0.05870000
opls_145-178    C    0.89420002    0.47833993    0.50000000    -0.14040000
opls_145-179    C    0.85272992    0.46291999    0.50000000    -0.17680000
opls_145-180    C    0.43194995    0.84387011    0.50000000    -0.17680000
opls_145-181    C    0.45481003    0.88577998    0.50000000    -0.13860000
opls_700-182    C    0.43687007    0.91026012    0.50000000    0.05830000
opls_145-183    C    0.39432004    0.88959016    0.50000000    -0.13590000
opls_145-184    C    0.37163987    0.84769991    0.50000000    -0.17670000
opls_916-185    C    0.38992994    0.82421003    0.50000000    0.20670000
opls_142-186    C    0.37928990    0.75284006    0.50000000    0.04620000
opls_145-187    C    0.35623004    0.71187006    0.50000000    -0.12030000
opls_280-188    C    0.31147011    0.68903010    0.50000000    0.31090000
opls_700-189    C    0.46256995    0.95609000    0.50000000    0.00810000
opls_145-190    C    0.50499011    0.97518012    0.50000000    -0.13800000
opls_145-191    C    0.52955995    0.01696991    0.50000000    -0.13800000
opls_700-192    C    0.51382998    0.04328996    0.50000000    0.00800000
opls_716-193    C    0.47129012    0.02394005    0.50000000    0.10110000
opls_716-194    C    0.44703012    0.98266018    0.50000000    0.10110000
opls_145-195    C    0.64004003    0.28837011    0.50000000    -0.12030000
opls_280-196    C    0.68462990    0.30730998    0.50000000    0.31090000
opls_142-197    C    0.63416992    0.38625988    0.50000000    0.04620000
opls_916-198    C    0.57837021    0.40433017    0.50000000    0.20670000
opls_145-199    C    0.60411009    0.44600017    0.50000000    -0.17700000
opls_145-200    C    0.58882994    0.47223997    0.50000000    -0.13940000
opls_700-201    C    0.54700002    0.45815002    0.50000000    0.05880000
opls_145-202    C    0.52166005    0.41585002    0.50000000    -0.14000000
opls_145-203    C    0.53708006    0.38980997    0.50000000    -0.16960000
opls_145-204    C    0.15612986    0.58807994    0.50000000    -0.17680000
opls_145-205    C    0.11421996    0.56902995    0.50000000    -0.13230000
opls_700-206    C    0.08973998    0.52659990    0.50000000    0.05840000
opls_145-207    C    0.11040994    0.50472999    0.50000000    -0.13590000
opls_145-208    C    0.15229997    0.52393990    0.50000000    -0.17680000
opls_916-209    C    0.17578998    0.56572003    0.50000000    0.20670000
opls_142-210    C    0.24715992    0.62644998    0.50000000    0.04620000
opls_145-211    C    0.28813011    0.64435010    0.50000000    -0.12030000
opls_280-212    C    0.31096996    0.62244005    0.50000000    0.30970000
opls_700-213    C    0.04390997    0.50647999    0.50000000    0.00810000
opls_145-214    C    0.02482005    0.52980995    0.50000000    -0.13810000
opls_145-215    C    0.98302999    0.51257996    0.50000000    -0.13800000
opls_700-216    C    0.95671006    0.47054005    0.50000000    0.00810000
opls_716-217    C    0.97605994    0.44735009    0.50000000    0.10110000
opls_716-218    C    0.01733999    0.46437008    0.50000000    0.10110000
opls_145-219    C    0.71162995    0.35167015    0.50000000    -0.12020000
opls_280-220    C    0.69269009    0.37732007    0.50000000    0.31090000
opls_142-221    C    0.61373996    0.24791003    0.50000000    0.04620000
opls_916-222    C    0.59567009    0.17403001    0.50000000    0.19600000
opls_145-223    C    0.55400017    0.15810015    0.50000000    -0.17700000
opls_145-224    C    0.52776015    0.11659006    0.50000000    -0.13940000
opls_700-225    C    0.54185017    0.08884014    0.50000000    0.05890000
opls_145-226    C    0.58415011    0.10580009    0.50000000    -0.14030000
opls_145-227    C    0.61019002    0.14727004    0.50000000    -0.16970000
opls_238-228    N    0.41623020    0.63516017    0.00000000    -0.31120000
opls_238-229    N    0.78342997    0.40751005    0.00000000    -0.31110000
opls_750-230    N    0.59282999    0.55024999    0.00000000    -0.37090000
opls_750-231    N    0.56355993    0.59198999    0.00000000    -0.37080000
opls_238-232    N    0.36483994    0.78106007    0.00000000    -0.31120000
opls_238-233    N    0.59248994    0.37591011    0.00000000    -0.31110000
opls_750-234    N    0.44975014    0.04257004    0.00000000    -0.37090000
opls_750-235    N    0.40800996    0.97156003    0.00000000    -0.37090000
opls_238-236    N    0.21893993    0.58377011    0.00000000    -0.31080000
opls_238-237    N    0.62409001    0.21656988    0.00000000    -0.31120000
opls_750-238    N    0.95743005    0.40717001    0.00000000    -0.37090000
opls_750-239    N    0.02844003    0.43644002    0.00000000    -0.37090000
opls_238-240    N    0.41623020    0.63516017    0.50000000    -0.31120000
opls_238-241    N    0.78342997    0.40751005    0.50000000    -0.31110000
opls_750-242    N    0.59282999    0.55024999    0.50000000    -0.37070000
opls_750-243    N    0.56355993    0.59198999    0.50000000    -0.37090000
opls_238-244    N    0.36483994    0.78106007    0.50000000    -0.31110000
opls_238-245    N    0.59248994    0.37591011    0.50000000    -0.31110000
opls_750-246    N    0.44975014    0.04257004    0.50000000    -0.37090000
opls_750-247    N    0.40800996    0.97156003    0.50000000    -0.37090000
opls_238-248    N    0.21893993    0.58377011    0.50000000    -0.31080000
opls_238-249    N    0.62409001    0.21656988    0.50000000    -0.31110000
opls_750-250    N    0.95743005    0.40717001    0.50000000    -0.37090000
opls_750-251    N    0.02844003    0.43644002    0.50000000    -0.37090000
opls_281-252    O    0.41404996    0.70720992    0.00000000    -0.37280000
opls_281-253    O    0.71354997    0.41368002    0.00000000    -0.37280000
opls_281-254    O    0.29279001    0.70684001    0.00000000    -0.37270000
opls_281-255    O    0.58631992    0.29987005    0.00000000    -0.37280000
opls_281-256    O    0.29316003    0.58595007    0.00000000    -0.37280000
opls_281-257    O    0.70012985    0.28644993    0.00000000    -0.37270000
opls_281-258    O    0.41404996    0.70720992    0.50000000    -0.37280000
opls_281-259    O    0.71354997    0.41368002    0.50000000    -0.37280000
opls_281-260    O    0.29279001    0.70684001    0.50000000    -0.37280000
opls_281-261    O    0.58631992    0.29987005    0.50000000    -0.37270000
opls_281-262    O    0.29316003    0.58595007    0.50000000    -0.37280000
opls_281-263    O    0.70012985    0.28644993    0.50000000    -0.37260000
opls_202-264    S    0.61082004    0.60015014    0.00000000    0.41630000
opls_202-265    S    0.39984997    0.01066989    0.00000000    0.41640000
opls_202-266    S    0.98932999    0.38917997    0.00000000    0.41630000
opls_202-267    S    0.61082004    0.60015014    0.50000000    0.41640000
opls_202-268    S    0.39984997    0.01066989    0.50000000    0.41630000
opls_202-269    S    0.98932999    0.38917997    0.50000000    0.41630000
