#======================================================================
# Crystal Data Generated By AuToFF
#----------------------------------------------------------------------

data_AuToFF_phase_1

_cell_length_a                         33.1269
_cell_length_b                         33.3520
_cell_length_c                         3.7203
_cell_angle_alpha                      87.52
_cell_angle_beta                       89.57
_cell_angle_gamma                      59.30
_symmetry_space_group_name_H-M_alt     'P 1'
_symmetry_space_group_IT_number        1

loop_
_space_group_symop_operation_xyz
   'x, y, z'

loop_
   _atom_site_label
   _atom_site_type_symbol
   _atom_site_fract_x
   _atom_site_fract_y
   _atom_site_fract_z
   _atom_site_charge
opls_142-0    C    0.84510985    0.30330016    0.41024896    0.12190000
opls_142-1    C    0.86651014    0.43892989    0.52790963    0.12220000
opls_142-2    C    0.70569994    0.46533003    0.39002981    0.12080000
opls_145-3    C    0.89580010    0.22537008    0.51686095    0.21170000
opls_145-4    C    0.86443985    0.20852020    0.50487046    -0.17530000
opls_145-5    C    0.94382011    0.19341989    0.55670994    -0.15670000
opls_145-6    C    0.88110016    0.16088009    0.52737146    -0.16200000
opls_166-7    C    0.15816988    0.68524021    0.54418935    0.19470000
opls_142-8    C    0.23594989    0.67032013    0.45081910    0.12250000
opls_142-9    C    0.07773016    0.69649998    0.61619953    0.11540000
opls_145-10    C    0.31318994    0.64904002    0.36851098    0.23170000
opls_145-11    C    0.34145011    0.66630986    0.29682101    -0.18650000
opls_145-12    C    0.33421991    0.60037001    0.40715985    -0.17150000
opls_145-13    C    0.38909018    0.63654993    0.26877953    -0.15850000
opls_700-14    C    0.82724023    0.35373990    0.41673932    -0.20840000
opls_166-15    C    0.85502996    0.37338998    0.45949982    0.20160000
opls_700-16    C    0.83471995    0.42174992    0.48799068    -0.15320000
opls_166-17    C    0.78544993    0.45092999    0.46237905    0.16730000
opls_700-18    C    0.75650993    0.43309008    0.41393006    -0.13070000
opls_166-19    C    0.77820981    0.38442015    0.39135910    0.19680000
opls_145-20    C    0.38184006    0.57059019    0.37870935    -0.16100000
opls_145-21    C    0.41019984    0.58811012    0.31205130    0.15770000
opls_145-22    C    0.53238005    0.54159001    0.25605982    0.15770000
opls_145-23    C    0.56255014    0.55820995    0.20381941    -0.15520000
opls_145-24    C    0.55211986    0.49458004    0.32065130    -0.15840000
opls_145-25    C    0.61105984    0.52948011    0.22267967    -0.16180000
opls_145-26    C    0.60050994    0.46559008    0.33640092    -0.15800000
opls_145-27    C    0.96037006    0.14590992    0.57954998    -0.16600000
opls_145-28    C    0.92912993    0.12895014    0.56586963    0.16420000
opls_145-29    C    0.88361992    0.49655010    0.60103114    0.23090000
opls_145-30    C    0.92884016    0.46838995    0.68058919    -0.16180000
opls_145-31    C    0.86857022    0.54334990    0.54639048    -0.15870000
opls_145-32    C    0.95850989    0.48620017    0.69820896    -0.14330000
opls_145-33    C    0.89850006    0.56081989    0.56141087    -0.18650000
opls_145-34    C    0.94427004    0.53229000    0.63617919    0.16040000
opls_145-35    C    0.00336020    0.00677997    0.64695071    0.15930000
opls_145-36    C    0.97718995    0.98763020    0.58010968    -0.16170000
opls_145-37    C    0.04924001    0.97636999    0.71664945    -0.15890000
opls_145-38    C    0.99685008    0.93954005    0.58019041    -0.16830000
opls_145-39    C    0.06930000    0.92811997    0.71446985    -0.18550000
opls_145-40    C    0.04360021    0.90914995    0.64209102    0.23230000
opls_145-41    C    0.99453992    0.60424002    0.59271099    0.15930000
opls_145-42    C    0.97887994    0.65056012    0.52937077    -0.15830000
opls_145-43    C    0.04177005    0.57563002    0.65304014    -0.16690000
opls_145-44    C    0.00894000    0.66823994    0.52852046    -0.16110000
opls_145-45    C    0.07215006    0.59288994    0.64868094    -0.15100000
opls_145-46    C    0.05606991    0.63964015    0.58942007    0.23250000
opls_142-47    C    0.10336010    0.83255007    0.58028997    0.12200000
opls_700-48    C    0.12114012    0.78231006    0.56836137    -0.13510000
opls_166-49    C    0.16892004    0.75222012    0.52457027    0.20140000
opls_166-50    C    0.09237997    0.76256000    0.59663965    0.19470000
opls_700-51    C    0.18798021    0.70348992    0.50632891    -0.08670000
opls_700-52    C    0.11028999    0.71386015    0.58883077    -0.13640000
opls_145-53    C    0.63049000    0.48312989    0.29378034    0.22900000
opls_181-54    C    0.76274995    0.54712998    0.41271110    -0.18320000
opls_181-55    C    0.95583987    0.33859004    0.46283918    -0.17830000
opls_181-56    C    0.70036010    0.36426006    0.36270141    -0.18620000
opls_181-57    C    0.19635011    0.82319992    0.50503999    -0.18620000
opls_181-58    C    0.99718985    0.83521019    0.57575048    -0.18290000
opls_181-59    C    0.22917005    0.58279001    0.59736080    -0.17870000
opls_750-60    N    0.88106993    0.27301008    0.50545976    -0.14590000
opls_750-61    N    0.85212985    0.48081022    0.57548947    -0.16560000
opls_750-62    N    0.67888008    0.45291990    0.31719085    -0.16680000
opls_750-63    N    0.94419995    0.08110019    0.58214128    -0.11010000
opls_750-64    N    0.98664994    0.05495017    0.64250003    -0.11010000
opls_750-65    N    0.97690002    0.54728005    0.65059952    -0.02040000
opls_750-66    N    0.96196994    0.58911003    0.58593002    -0.02020000
opls_750-67    N    0.06166009    0.86110992    0.63427137    -0.16740000
opls_750-68    N    0.26658007    0.68204006    0.40817969    -0.16340000
opls_750-69    N    0.08840011    0.65486009    0.57885036    -0.18860000
opls_750-70    N    0.45860990    0.55605016    0.30281895    -0.06900000
opls_750-71    N    0.48371000    0.57352001    0.24845006    -0.07080000
opls_179-72    O    0.77394002    0.49965989    0.43723024    -0.21390000
opls_179-73    O    0.74258002    0.36848014    0.38726899    -0.12840000
opls_179-74    O    0.90724011    0.35124997    0.45733099    -0.21200000
opls_179-75    O    0.04211988    0.79381004    0.60579128    -0.20830000
opls_179-76    O    0.18733003    0.78472011    0.49031020    -0.21200000
opls_179-77    O    0.18799999    0.63173006    0.58002895    -0.12730000
opls_144-78    H    0.81414021    0.29768989    0.39122994    0.02780000
opls_144-79    H    0.90409988    0.41415012    0.52721001    0.10400000
opls_144-80    H    0.69291997    0.50149989    0.40418914    0.12770000
opls_146-81    H    0.82610021    0.23296987    0.47940144    0.12540000
opls_146-82    H    0.97023997    0.20410990    0.56498972    0.08260000
opls_146-83    H    0.85166998    0.15288008    0.51926120    0.04540000
opls_144-84    H    0.24891009    0.63238001    0.49367916    0.04920000
opls_144-85    H    0.04088993    0.72358995    0.64216905    0.07850000
opls_146-86    H    0.32920998    0.70412011    0.28798960    0.05520000
opls_146-87    H    0.31047016    0.58532997    0.38941899    0.04670000
opls_146-88    H    0.41062017    0.65349996    0.25343892    0.04930000
opls_146-89    H    0.39997998    0.53100992    0.36942050    0.04410000
opls_146-90    H    0.54903994    0.59630015    0.17992993    0.05310000
opls_146-91    H    0.52739982    0.48054019    0.32921900    0.04670000
opls_146-92    H    0.63093984    0.54791018    0.20257085    0.12930000
opls_146-93    H    0.61865999    0.42575014    0.34508971    0.04220000
opls_146-94    H    0.99927003    0.12295007    0.60247882    0.11080000
opls_146-95    H    0.94967983    0.42885023    0.68675934    0.04540000
opls_146-96    H    0.83038017    0.57064997    0.51933116    0.05180000
opls_146-97    H    0.99735019    0.46206993    0.71710958    0.04410000
opls_146-98    H    0.88402006    0.59896995    0.53209123    0.12940000
opls_146-99    H    0.93850010    0.01208993    0.55500124    0.09480000
opls_146-100    H    0.07262002    0.99108002    0.73148148    0.05330000
opls_146-101    H    0.96836995    0.93007997    0.57354936    0.04420000
opls_146-102    H    0.10860007    0.90907018    0.72005070    0.12090000
opls_146-103    H    0.94054994    0.67837001    0.51562046    0.04690000
opls_146-104    H    0.06046998    0.53619002    0.66613118    0.04760000
opls_146-105    H    0.99225002    0.70639005    0.50270970    0.07400000
opls_146-106    H    0.10989010    0.56646021    0.65856986    0.08260000
opls_144-107    H    0.12680007    0.84565004    0.58059134    0.11120000
opls_185-108    H    0.72469995    0.57184002    0.40221135    0.10450000
opls_185-109    H    0.77480989    0.55122007    0.15274952    0.11420000
opls_185-110    H    0.77951005    0.55527018    0.62449008    0.11340000
opls_185-111    H    0.96485011    0.34947999    0.21008912    0.11370000
opls_185-112    H    0.98031004    0.30086013    0.49117128    0.12320000
opls_185-113    H    0.96297012    0.35478010    0.68231942    0.10900000
opls_185-114    H    0.71216012    0.32790995    0.35181956    0.10160000
opls_185-115    H    0.68235020    0.37699987    0.10222050    0.11830000
opls_185-116    H    0.67552005    0.37157022    0.59325993    0.06430000
opls_185-117    H    0.17822003    0.84922999    0.28410131    0.10870000
opls_185-118    H    0.23475999    0.80883998    0.50516108    0.09470000
opls_185-119    H    0.18445009    0.84015997    0.76010150    0.11770000
opls_185-120    H    0.96840012    0.82828007    0.60867050    0.12430000
opls_185-121    H    0.99106014    0.85132998    0.30848052    0.12410000
opls_185-122    H    0.99264991    0.85956023    0.77363116    0.11410000
opls_185-123    H    0.25119006    0.57380009    0.83336024    0.11960000
opls_185-124    H    0.25112996    0.57359992    0.36159008    0.11760000
opls_185-125    H    0.21550993    0.55976995    0.63299052    0.12390000
