#======================================================================
# Crystal Data Generated By AuToFF
#----------------------------------------------------------------------

data_AuToFF_phase_1

_cell_length_a                         19.5434
_cell_length_b                         3.4607
_cell_length_c                         19.5168
_cell_angle_alpha                      90.00
_cell_angle_beta                       122.91
_cell_angle_gamma                      90.00
_symmetry_space_group_name_H-M_alt     'P 1'
_symmetry_space_group_IT_number        1

loop_
_space_group_symop_operation_xyz
   'x, y, z'

loop_
   _atom_site_label
   _atom_site_type_symbol
   _atom_site_fract_x
   _atom_site_fract_y
   _atom_site_fract_z
   _atom_site_charge
opls_700-0    C    0.50048005    0.50000000    0.50577005    0.05670000
opls_700-1    C    0.44833985    0.50000000    0.54211999    0.05670000
opls_145-2    C    0.36207020    0.50000000    0.49201996    -0.13590000
opls_145-3    C    0.31429990    0.50000000    0.52509976    -0.13170000
opls_700-4    C    0.34952966    0.50000000    0.60951978    0.09820000
opls_145-5    C    0.43497977    0.50000000    0.66054995    -0.13590000
opls_145-6    C    0.48324019    0.50000000    0.62760015    -0.14540000
opls_142-7    C    0.29345001    0.50000000    0.63919029    -0.13830000
opls_142-8    C    0.31657028    0.50000000    0.71805022    -0.11080000
opls_700-9    C    0.26362971    0.50000000    0.75378983    0.01980000
opls_700-10    C    0.30400996    0.50000000    0.84085014    -0.03630000
opls_521-11    C    0.25782017    0.50000000    0.87798008    0.16880000
opls_521-12    C    0.13363017    0.50000000    0.74623031    0.17010000
opls_700-13    C    0.17663023    0.50000000    0.70669018    -0.05490000
opls_142-14    C    0.28988996    0.50000000    0.96768982    -0.15230000
opls_142-15    C    0.04277006    0.50000000    0.69798018    -0.20910000
opls_145-16    C    0.58681034    0.50000000    0.55599031    -0.19360000
opls_700-17    C    0.63605991    0.50000000    0.52358004    0.05590000
opls_145-18    C    0.59552990    0.50000000    0.43791006    -0.21750000
opls_700-19    C    0.51026979    0.50000000    0.38435008    0.05530000
opls_145-20    C    0.46422994    0.50000000    0.42012021    -0.19250000
opls_423-21    C    0.39203020    0.50000000    0.88928031    0.20700000
opls_423-22    C    0.12874964    0.50000000    0.61856973    0.20700000
opls_700-23    C    0.72917999    0.50000000    0.57765026    0.05790000
opls_700-24    C    0.47055989    0.50000000    0.29182978    0.05650000
opls_145-25    C    0.77677984    0.50000000    0.54308980    -0.13070000
opls_145-26    C    0.86128995    0.50000000    0.59060997    -0.14670000
opls_700-27    C    0.90442010    0.50000000    0.67622014    0.09380000
opls_145-28    C    0.85886996    0.50000000    0.71226003    -0.14540000
opls_145-29    C    0.77303029    0.50000000    0.66423024    -0.14710000
opls_145-30    C    0.38464013    0.50000000    0.23563012    -0.14710000
opls_145-31    C    0.34947996    0.50000000    0.15074991    -0.14470000
opls_700-32    C    0.39885993    0.50000000    0.11892983    0.08670000
opls_145-33    C    0.48329001    0.50000000    0.17354019    -0.14540000
opls_145-34    C    0.51836975    0.50000000    0.25734988    -0.13170000
opls_142-35    C    0.99576002    0.50000000    0.72885975    -0.14990000
opls_142-36    C    0.36828000    0.50000000    0.03062018    -0.14520000
opls_520-37    N    0.17528031    0.50000000    0.82876014    -0.32030000
opls_262-38    N    0.46262993    0.50000000    0.92647007    -0.32680000
opls_262-39    N    0.08845009    0.50000000    0.54789980    -0.32680000
opls_146-40    H    0.32852020    0.50000000    0.42657993    0.09540000
opls_146-41    H    0.24859031    0.50000000    0.48377015    0.10560000
opls_146-42    H    0.46604976    0.50000000    0.72612975    0.09300000
opls_146-43    H    0.54790995    0.50000000    0.67133995    0.08620000
opls_144-44    H    0.23099024    0.50000000    0.59089012    0.21300000
opls_144-45    H    0.38119984    0.50000000    0.76116993    0.08500000
opls_144-46    H    0.24301988    0.50000000    0.98099010    0.10970000
opls_144-47    H    0.01379967    0.50000000    0.63330977    0.09750000
opls_146-48    H    0.61620005    0.50000000    0.62053011    0.21290000
opls_146-49    H    0.63080023    0.50000000    0.41229031    0.21880000
opls_146-50    H    0.39984025    0.50000000    0.38053003    0.21980000
opls_146-51    H    0.75195981    0.50000000    0.47881001    0.08500000
opls_146-52    H    0.89062966    0.50000000    0.55730984    0.20340000
opls_146-53    H    0.88985041    0.50000000    0.77808030    0.10470000
opls_146-54    H    0.74288019    0.50000000    0.69676013    0.10940000
opls_146-55    H    0.34264018    0.50000000    0.25505993    0.20340000
opls_146-56    H    0.28390008    0.50000000    0.11088997    0.10700000
opls_146-57    H    0.52333997    0.50000000    0.15115029    0.10380000
opls_146-58    H    0.58369990    0.50000000    0.29234001    0.09540000
opls_144-59    H    0.02502008    0.50000000    0.79452987    0.10280000
opls_144-60    H    0.41624005    0.50000000    0.02020004    0.21980000
