#======================================================================
# Crystal Data Generated By AuToFF
#----------------------------------------------------------------------

data_AuToFF_phase_1

_cell_length_a                         44.3543
_cell_length_b                         44.3543
_cell_length_c                         3.4112
_cell_angle_alpha                      90.00
_cell_angle_beta                       90.00
_cell_angle_gamma                      120.00
_symmetry_space_group_name_H-M_alt     'P 1'
_symmetry_space_group_IT_number        1

loop_
_space_group_symop_operation_xyz
   'x, y, z'

loop_
   _atom_site_label
   _atom_site_type_symbol
   _atom_site_fract_x
   _atom_site_fract_y
   _atom_site_fract_z
   _atom_site_charge
opls_702-0    H    0.56586013    0.57955011    0.25185858    0.15790000
opls_702-1    H    0.42044999    0.98630010    0.25185858    0.15790000
opls_702-2    H    0.01370004    0.43413990    0.25185858    0.15790000
opls_702-3    H    0.43413987    0.42044989    0.25185858    0.15790000
opls_702-4    H    0.57955001    0.01369990    0.25185858    0.15790000
opls_702-5    H    0.98629996    0.56586010    0.25185858    0.15790000
opls_702-6    H    0.43413987    0.42044989    0.74814142    0.15790000
opls_702-7    H    0.57955001    0.01369990    0.74814142    0.15790000
opls_702-8    H    0.98629996    0.56586010    0.74814142    0.15790000
opls_702-9    H    0.56586013    0.57955011    0.74814142    0.15790000
opls_702-10    H    0.42044999    0.98630010    0.74814142    0.15790000
opls_702-11    H    0.01370004    0.43413990    0.74814142    0.15790000
opls_526-12    H    0.32311990    0.58118997    0.50000000    0.10810000
opls_146-13    H    0.35531000    0.54741012    0.50000000    0.10270000
opls_146-14    H    0.41103999    0.47542002    0.50000000    0.11030000
opls_526-15    H    0.58118990    0.32312002    0.50000000    0.10810000
opls_146-16    H    0.54740991    0.35531000    0.50000000    0.10270000
opls_146-17    H    0.47542013    0.41104005    0.50000000    0.11030000
opls_702-18    H    0.58612996    0.55926997    0.50000000    0.12200000
opls_526-19    H    0.41880999    0.74193005    0.50000000    0.10810000
opls_146-20    H    0.45258987    0.80789989    0.50000000    0.10270000
opls_146-21    H    0.52457994    0.93562003    0.50000000    0.11030000
opls_526-22    H    0.67687994    0.25806995    0.50000000    0.10810000
opls_146-23    H    0.64468999    0.19210011    0.50000000    0.10270000
opls_146-24    H    0.58895990    0.06437997    0.50000000    0.11030000
opls_702-25    H    0.44072009    0.02686013    0.50000000    0.12330000
opls_526-26    H    0.25806988    0.67687998    0.50000000    0.10810000
opls_146-27    H    0.19209990    0.64469000    0.50000000    0.10270000
opls_146-28    H    0.06438007    0.58895995    0.50000000    0.11030000
opls_526-29    H    0.74192993    0.41881003    0.50000000    0.10810000
opls_146-30    H    0.80789988    0.45258988    0.50000000    0.10270000
opls_146-31    H    0.93561997    0.52457998    0.50000000    0.11030000
opls_702-32    H    0.97314003    0.41386990    0.50000000    0.12200000
opls_526-33    H    0.67688010    0.41881003    0.50000000    0.10810000
opls_146-34    H    0.64469000    0.45258988    0.50000000    0.10270000
opls_146-35    H    0.58896001    0.52457998    0.50000000    0.11030000
opls_526-36    H    0.41881010    0.67687998    0.50000000    0.10810000
opls_146-37    H    0.45259009    0.64469000    0.50000000    0.10270000
opls_146-38    H    0.52457987    0.58895995    0.50000000    0.11030000
opls_702-39    H    0.41386993    0.44071988    0.50000000    0.12480000
opls_526-40    H    0.58119001    0.25806995    0.50000000    0.10810000
opls_146-41    H    0.54741013    0.19210011    0.50000000    0.10270000
opls_146-42    H    0.47542006    0.06437997    0.50000000    0.11030000
opls_526-43    H    0.32312006    0.74193005    0.50000000    0.10810000
opls_146-44    H    0.35531001    0.80789989    0.50000000    0.10270000
opls_146-45    H    0.41104010    0.93562003    0.50000000    0.11030000
opls_702-46    H    0.55927012    0.97314013    0.50000000    0.12200000
opls_526-47    H    0.74193012    0.32312002    0.50000000    0.10810000
opls_146-48    H    0.80790010    0.35531000    0.50000000    0.10270000
opls_146-49    H    0.93561993    0.41104005    0.50000000    0.11030000
opls_526-50    H    0.25807007    0.58118997    0.50000000    0.10810000
opls_146-51    H    0.19210012    0.54741012    0.50000000    0.10270000
opls_146-52    H    0.06438003    0.47542002    0.50000000    0.11030000
opls_702-53    H    0.02685997    0.58613010    0.50000000    0.12200000
opls_167-54    O    0.41035989    0.53805001    0.50000000    -0.33400000
opls_167-55    O    0.53805012    0.41036006    0.50000000    -0.33400000
opls_167-56    O    0.46195004    0.87231005    0.50000000    -0.33400000
opls_167-57    O    0.58963999    0.12768995    0.50000000    -0.33400000
opls_167-58    O    0.12769007    0.58963994    0.50000000    -0.33400000
opls_167-59    O    0.87230988    0.46194999    0.50000000    -0.33400000
opls_167-60    O    0.58964011    0.46194999    0.50000000    -0.33400000
opls_167-61    O    0.46194988    0.58963994    0.50000000    -0.33400000
opls_167-62    O    0.53804996    0.12768995    0.50000000    -0.33400000
opls_167-63    O    0.41036001    0.87231005    0.50000000    -0.33400000
opls_167-64    O    0.87230993    0.41036006    0.50000000    -0.33400000
opls_167-65    O    0.12769012    0.53805001    0.50000000    -0.33400000
opls_166-66    C    0.43713999    0.53101990    0.50000000    0.17030000
opls_700-67    C    0.46747991    0.49976999    0.50000000    0.03290000
opls_145-68    C    0.43549000    0.49993999    0.50000000    -0.19640000
opls_523-69    C    0.35138998    0.59439003    0.50000000    -0.11440000
opls_145-70    C    0.36922007    0.57577993    0.50000000    -0.05510000
opls_166-71    C    0.53101998    0.43714000    0.50000000    0.17030000
opls_700-72    C    0.49976992    0.46748004    0.50000000    0.03290000
opls_145-73    C    0.49993996    0.43549000    0.50000000    -0.19640000
opls_523-74    C    0.59438998    0.35139013    0.50000000    -0.11440000
opls_145-75    C    0.57577996    0.36922000    0.50000000    -0.05510000
opls_700-76    C    0.53136998    0.53137006    0.50000000    0.06820000
opls_145-77    C    0.40569999    0.59429995    0.50000000    -0.24490000
opls_531-78    C    0.35034988    0.64964991    0.50000000    0.33810000
opls_700-79    C    0.36944997    0.63055013    0.50000000    0.01650000
opls_148-80    C    0.56448009    0.56448006    0.50000000    -0.41880000
opls_166-81    C    0.46898004    0.90612010    0.50000000    0.17030000
opls_700-82    C    0.50022999    0.96771005    0.50000000    0.03290000
opls_145-83    C    0.50006003    0.93555000    0.50000000    -0.19640000
opls_523-84    C    0.40561016    0.75700010    0.50000000    -0.11440000
opls_145-85    C    0.42421996    0.79344006    0.50000000    -0.05510000
opls_166-86    C    0.56285994    0.09387990    0.50000000    0.17030000
opls_700-87    C    0.53251994    0.03228995    0.50000000    0.03290000
opls_145-88    C    0.56451003    0.06445000    0.50000000    -0.19640000
opls_523-89    C    0.64861006    0.24299990    0.50000000    -0.11440000
opls_145-90    C    0.63077990    0.20655994    0.50000000    -0.05510000
opls_700-91    C    0.46863010    0.00000000    0.50000000    0.06820000
opls_145-92    C    0.40570005    0.81140010    0.50000000    -0.24490000
opls_531-93    C    0.35034996    0.70069991    0.50000000    0.33810000
opls_700-94    C    0.36945000    0.73890000    0.50000000    0.01300000
opls_148-95    C    0.43551989    0.00000000    0.50000000    -0.40910000
opls_166-96    C    0.09387997    0.56286000    0.50000000    0.17030000
opls_700-97    C    0.03228988    0.53251996    0.50000000    0.03290000
opls_145-98    C    0.06444996    0.56451000    0.50000000    -0.19640000
opls_523-99    C    0.24299998    0.64861013    0.50000000    -0.11440000
opls_145-100    C    0.20655997    0.63078000    0.50000000    -0.05510000
opls_166-101    C    0.90612008    0.46898010    0.50000000    0.17030000
opls_700-102    C    0.96770992    0.50023001    0.50000000    0.03290000
opls_145-103    C    0.93555001    0.50006001    0.50000000    -0.19640000
opls_523-104    C    0.75699996    0.40560997    0.50000000    -0.11440000
opls_145-105    C    0.79344014    0.42422007    0.50000000    -0.05510000
opls_700-106    C    0.99999992    0.46862994    0.50000000    0.06830000
opls_145-107    C    0.18859996    0.59429995    0.50000000    -0.24480000
opls_531-108    C    0.29930004    0.64964991    0.50000000    0.33810000
opls_700-109    C    0.26110016    0.63055013    0.50000000    0.01650000
opls_148-110    C    0.00000002    0.43551994    0.50000000    -0.40910000
opls_166-111    C    0.56286001    0.46898010    0.50000000    0.17030000
opls_700-112    C    0.53252009    0.50023001    0.50000000    0.03290000
opls_145-113    C    0.56451000    0.50006001    0.50000000    -0.19640000
opls_523-114    C    0.64861002    0.40560997    0.50000000    -0.11440000
opls_145-115    C    0.63077993    0.42422007    0.50000000    -0.05510000
opls_166-116    C    0.46898002    0.56286000    0.50000000    0.17040000
opls_700-117    C    0.50023008    0.53251996    0.50000000    0.03290000
opls_145-118    C    0.50006004    0.56451000    0.50000000    -0.19640000
opls_523-119    C    0.40561015    0.64861013    0.50000000    -0.11440000
opls_145-120    C    0.42422004    0.63078000    0.50000000    -0.05510000
opls_700-121    C    0.46863002    0.46862994    0.50000000    0.06820000
opls_145-122    C    0.59430001    0.40570005    0.50000000    -0.24490000
opls_531-123    C    0.64965012    0.35035009    0.50000000    0.33810000
opls_700-124    C    0.63055016    0.36945013    0.50000000    0.01650000
opls_148-125    C    0.43551991    0.43551994    0.50000000    -0.41610000
opls_166-126    C    0.53101996    0.09387990    0.50000000    0.17030000
opls_700-127    C    0.49977001    0.03228995    0.50000000    0.03290000
opls_145-128    C    0.49993997    0.06445000    0.50000000    -0.19640000
opls_523-129    C    0.59438984    0.24299990    0.50000000    -0.11440000
opls_145-130    C    0.57578004    0.20655994    0.50000000    -0.05510000
opls_166-131    C    0.43714006    0.90612010    0.50000000    0.17030000
opls_700-132    C    0.46748006    0.96771005    0.50000000    0.03290000
opls_145-133    C    0.43548997    0.93555000    0.50000000    -0.19640000
opls_523-134    C    0.35138994    0.75700010    0.50000000    -0.11440000
opls_145-135    C    0.36922010    0.79344006    0.50000000    -0.05510000
opls_700-136    C    0.53136990    0.00000000    0.50000000    0.06820000
opls_145-137    C    0.59429995    0.18859990    0.50000000    -0.24490000
opls_531-138    C    0.64965004    0.29930009    0.50000000    0.33820000
opls_700-139    C    0.63055000    0.26110000    0.50000000    0.01300000
opls_148-140    C    0.56448011    0.00000000    0.50000000    -0.40910000
opls_166-141    C    0.90612003    0.43714000    0.50000000    0.17030000
opls_700-142    C    0.96771012    0.46748004    0.50000000    0.03290000
opls_145-143    C    0.93555004    0.43549000    0.50000000    -0.19640000
opls_523-144    C    0.75700015    0.35139013    0.50000000    -0.11440000
opls_145-145    C    0.79344003    0.36922000    0.50000000    -0.05510000
opls_166-146    C    0.09387992    0.53101990    0.50000000    0.17030000
opls_700-147    C    0.03229008    0.49976999    0.50000000    0.03290000
opls_145-148    C    0.06444999    0.49993999    0.50000000    -0.19640000
opls_523-149    C    0.24300004    0.59439003    0.50000000    -0.11440000
opls_145-150    C    0.20655986    0.57577993    0.50000000    -0.05510000
opls_700-151    C    0.00000008    0.53137006    0.50000000    0.06820000
opls_145-152    C    0.81140004    0.40570005    0.50000000    -0.24490000
opls_531-153    C    0.70069996    0.35035009    0.50000000    0.33810000
opls_700-154    C    0.73889997    0.36945013    0.50000000    0.01650000
opls_148-155    C    0.99999998    0.56448006    0.50000000    -0.40910000
opls_520-156    N    0.31570006    0.63140012    0.50000000    -0.40820000
opls_520-157    N    0.36860001    0.68430007    0.50000000    -0.40820000
opls_520-158    N    0.31570006    0.68430007    0.50000000    -0.40820000
opls_520-159    N    0.68429994    0.36859988    0.50000000    -0.40820000
opls_520-160    N    0.63139999    0.31569993    0.50000000    -0.40820000
opls_520-161    N    0.68429994    0.31569993    0.50000000    -0.40820000
MOF2_B_2-162    B    0.42562015    0.57438011    0.50000000    0.55600000
MOF2_B_2-163    B    0.42562002    0.85124004    0.50000000    0.55600000
MOF2_B_2-164    B    0.14875996    0.57438011    0.50000000    0.55600000
MOF2_B_2-165    B    0.57437985    0.42561989    0.50000000    0.55600000
MOF2_B_2-166    B    0.57437998    0.14875996    0.50000000    0.55600000
MOF2_B_2-167    B    0.85124004    0.42561989    0.50000000    0.55600000
