#======================================================================
# Crystal Data Generated By AuToFF
#----------------------------------------------------------------------

data_AuToFF_phase_1

_cell_length_a                         26.2272
_cell_length_b                         21.3022
_cell_length_c                         5.0543
_cell_angle_alpha                      90.00
_cell_angle_beta                       90.00
_cell_angle_gamma                      90.00
_symmetry_space_group_name_H-M_alt     'P 1'
_symmetry_space_group_IT_number        1

loop_
_space_group_symop_operation_xyz
   'x, y, z'

loop_
   _atom_site_label
   _atom_site_type_symbol
   _atom_site_fract_x
   _atom_site_fract_y
   _atom_site_fract_z
   _atom_site_charge
opls_145-0    C    0.35252982    0.90688990    0.05693964    0.14590000
opls_145-1    C    0.32857987    0.88660983    0.86833983    -0.23650000
opls_145-2    C    0.30504019    0.83401996    0.87322082    -0.22920000
opls_145-3    C    0.30170014    0.80293021    0.06986922    0.03770000
opls_145-4    C    0.32460003    0.82329008    0.25986981    -0.22950000
opls_145-5    C    0.35008007    0.87514998    0.25377006    -0.21940000
opls_141-6    C    0.27438003    0.74874004    0.07587005    -0.03340000
opls_145-7    C    0.30256985    0.69523007    0.06667986    0.03770000
opls_145-8    C    0.30726002    0.66052990    0.25394021    -0.22790000
opls_145-9    C    0.33344009    0.60959009    0.24339078    -0.23930000
opls_145-10    C    0.35767981    0.59437007    0.05021071    0.14590000
opls_145-11    C    0.35462001    0.63043019    0.86333023    -0.21940000
opls_145-12    C    0.32676992    0.68031987    0.87222959    -0.22960000
opls_142-13    C    0.41206991    0.52296007    0.89397938    0.07820000
opls_145-14    C    0.43500984    0.46618002    0.90815939    0.02270000
opls_145-15    C    0.43208997    0.43312991    0.10123064    -0.22960000
opls_145-16    C    0.45360008    0.37921013    0.11038917    -0.22780000
opls_145-17    C    0.47793016    0.35705983    0.92748946    0.03770000
opls_145-18    C    0.48176016    0.39017003    0.73465960    -0.21510000
opls_145-19    C    0.45994006    0.44428979    0.72486991    -0.22960000
opls_145-20    C    0.50378005    0.30254997    0.95487011    0.02560000
opls_145-21    C    0.48249985    0.24983006    0.89615971    -0.16320000
opls_145-22    C    0.50328018    0.19762982    0.96667986    0.02790000
opls_145-23    C    0.54591988    0.19956014    0.08997092    -0.22660000
opls_145-24    C    0.56699991    0.25169982    0.14628930    -0.17140000
opls_145-25    C    0.54555004    0.30287013    0.08310943    -0.22640000
opls_145-26    C    0.47821003    0.14170978    0.93635914    0.03740000
opls_145-27    C    0.45577988    0.12763001    0.73561918    -0.21510000
opls_145-28    C    0.42944005    0.07653998    0.71597056    -0.21510000
opls_145-29    C    0.42429996    0.03937997    0.89727954    0.02250000
opls_145-30    C    0.44964007    0.05121020    0.09243021    -0.21190000
opls_145-31    C    0.47628988    0.10201012    0.11177018    -0.21190000
opls_142-32    C    0.39134982    0.98971984    0.88094098    0.07810000
opls_145-33    C    0.64747018    0.09311010    0.05693964    0.14590000
opls_145-34    C    0.67142013    0.11339017    0.86833983    -0.23650000
opls_145-35    C    0.69495981    0.16598004    0.87322082    -0.22920000
opls_145-36    C    0.69829986    0.19706979    0.06986922    0.03770000
opls_145-37    C    0.67539997    0.17670992    0.25986981    -0.22960000
opls_145-38    C    0.64991993    0.12485002    0.25377006    -0.21940000
opls_141-39    C    0.72561997    0.25125996    0.07587005    -0.03340000
opls_145-40    C    0.69743015    0.30476993    0.06667986    0.03770000
opls_145-41    C    0.69273998    0.33947010    0.25394021    -0.22790000
opls_145-42    C    0.66655991    0.39040991    0.24339078    -0.23930000
opls_145-43    C    0.64232019    0.40562993    0.05021071    0.14590000
opls_145-44    C    0.64537999    0.36956981    0.86333023    -0.21940000
opls_145-45    C    0.67323008    0.31968013    0.87222959    -0.22960000
opls_142-46    C    0.58793009    0.47703993    0.89397938    0.07820000
opls_145-47    C    0.56499016    0.53381998    0.90815939    0.02270000
opls_145-48    C    0.56791003    0.56687009    0.10123064    -0.22960000
opls_145-49    C    0.54639992    0.62078987    0.11038917    -0.22790000
opls_145-50    C    0.52206984    0.64294017    0.92748946    0.03770000
opls_145-51    C    0.51823984    0.60982997    0.73465960    -0.21510000
opls_145-52    C    0.54005994    0.55571021    0.72486991    -0.22960000
opls_145-53    C    0.49621995    0.69745003    0.95487011    0.02560000
opls_145-54    C    0.51750015    0.75016994    0.89615971    -0.16330000
opls_145-55    C    0.49671982    0.80237018    0.96667986    0.02790000
opls_145-56    C    0.45408012    0.80043986    0.08997092    -0.22660000
opls_145-57    C    0.43300009    0.74830018    0.14628930    -0.17140000
opls_145-58    C    0.45444996    0.69712987    0.08310943    -0.22640000
opls_145-59    C    0.52178997    0.85829022    0.93635914    0.03740000
opls_145-60    C    0.54422012    0.87236999    0.73561918    -0.21510000
opls_145-61    C    0.57055995    0.92346002    0.71597056    -0.21510000
opls_145-62    C    0.57570004    0.96062003    0.89727954    0.02250000
opls_145-63    C    0.55035993    0.94878980    0.09243021    -0.21190000
opls_145-64    C    0.52371012    0.89798988    0.11177018    -0.21190000
opls_142-65    C    0.60865018    0.01028016    0.88094098    0.07810000
opls_145-66    C    0.85252982    0.09311010    0.05693964    0.14590000
opls_145-67    C    0.82857987    0.11339017    0.86833983    -0.23650000
opls_145-68    C    0.80504019    0.16598004    0.87322082    -0.22920000
opls_145-69    C    0.80170014    0.19706979    0.06986922    0.03770000
opls_145-70    C    0.82460003    0.17670992    0.25986981    -0.22960000
opls_145-71    C    0.85008007    0.12485002    0.25377006    -0.21940000
opls_141-72    C    0.77438003    0.25125996    0.07587005    -0.03340000
opls_145-73    C    0.80256985    0.30476993    0.06667986    0.03770000
opls_145-74    C    0.80726002    0.33947010    0.25394021    -0.22790000
opls_145-75    C    0.83344009    0.39040991    0.24339078    -0.23930000
opls_145-76    C    0.85767981    0.40562993    0.05021071    0.14590000
opls_145-77    C    0.85462001    0.36956981    0.86333023    -0.21940000
opls_145-78    C    0.82676992    0.31968013    0.87222959    -0.22960000
opls_142-79    C    0.91206991    0.47703993    0.89397938    0.07820000
opls_145-80    C    0.93500984    0.53381998    0.90815939    0.02270000
opls_145-81    C    0.93208997    0.56687009    0.10123064    -0.22960000
opls_145-82    C    0.95360008    0.62078987    0.11038917    -0.22790000
opls_145-83    C    0.97793016    0.64294017    0.92748946    0.03770000
opls_145-84    C    0.98176016    0.60982997    0.73465960    -0.21510000
opls_145-85    C    0.95994006    0.55571021    0.72486991    -0.22960000
opls_145-86    C    0.00378005    0.69745003    0.95487011    0.02560000
opls_145-87    C    0.98249985    0.75016994    0.89615971    -0.16330000
opls_145-88    C    0.00328018    0.80237018    0.96667986    0.02790000
opls_145-89    C    0.04591988    0.80043986    0.08997092    -0.22660000
opls_145-90    C    0.06699991    0.74830018    0.14628930    -0.17140000
opls_145-91    C    0.04555004    0.69712987    0.08310943    -0.22640000
opls_145-92    C    0.97821003    0.85829022    0.93635914    0.03740000
opls_145-93    C    0.95577988    0.87236999    0.73561918    -0.21510000
opls_145-94    C    0.92944005    0.92346002    0.71597056    -0.21510000
opls_145-95    C    0.92429996    0.96062003    0.89727954    0.02250000
opls_145-96    C    0.94964007    0.94878980    0.09243021    -0.21180000
opls_145-97    C    0.97628988    0.89798988    0.11177018    -0.21190000
opls_142-98    C    0.89134982    0.01028016    0.88094098    0.07810000
opls_145-99    C    0.14747018    0.90688990    0.05693964    0.14590000
opls_145-100    C    0.17142013    0.88660983    0.86833983    -0.23650000
opls_145-101    C    0.19495981    0.83401996    0.87322082    -0.22920000
opls_145-102    C    0.19829986    0.80293021    0.06986922    0.03770000
opls_145-103    C    0.17539997    0.82329008    0.25986981    -0.22960000
opls_145-104    C    0.14991993    0.87514998    0.25377006    -0.21930000
opls_141-105    C    0.22561997    0.74874004    0.07587005    -0.03340000
opls_145-106    C    0.19743015    0.69523007    0.06667986    0.03770000
opls_145-107    C    0.19273998    0.66052990    0.25394021    -0.22790000
opls_145-108    C    0.16655991    0.60959009    0.24339078    -0.23920000
opls_145-109    C    0.14232019    0.59437007    0.05021071    0.14590000
opls_145-110    C    0.14537999    0.63043019    0.86333023    -0.21940000
opls_145-111    C    0.17323008    0.68031987    0.87222959    -0.22960000
opls_142-112    C    0.08793009    0.52296007    0.89397938    0.07820000
opls_145-113    C    0.06499016    0.46618002    0.90815939    0.02270000
opls_145-114    C    0.06791003    0.43312991    0.10123064    -0.22960000
opls_145-115    C    0.04639992    0.37921013    0.11038917    -0.22790000
opls_145-116    C    0.02206984    0.35705983    0.92748946    0.03770000
opls_145-117    C    0.01823984    0.39017003    0.73465960    -0.21510000
opls_145-118    C    0.04005994    0.44428979    0.72486991    -0.22960000
opls_145-119    C    0.99621995    0.30254997    0.95487011    0.02560000
opls_145-120    C    0.01750015    0.24983006    0.89615971    -0.16330000
opls_145-121    C    0.99671982    0.19762982    0.96667986    0.02790000
opls_145-122    C    0.95408012    0.19956014    0.08997092    -0.22660000
opls_145-123    C    0.93300009    0.25169982    0.14628930    -0.17140000
opls_145-124    C    0.95444996    0.30287013    0.08310943    -0.22640000
opls_145-125    C    0.02178997    0.14170978    0.93635914    0.03740000
opls_145-126    C    0.04422012    0.12763001    0.73561918    -0.21510000
opls_145-127    C    0.07055995    0.07653998    0.71597056    -0.21510000
opls_145-128    C    0.07570004    0.03937997    0.89727954    0.02250000
opls_145-129    C    0.05035993    0.05121020    0.09243021    -0.21190000
opls_145-130    C    0.02371012    0.10201012    0.11177018    -0.21190000
opls_142-131    C    0.10865018    0.98971984    0.88094098    0.07810000
opls_750-132    N    0.38484017    0.54205998    0.05287973    -0.20760000
opls_750-133    N    0.38314002    0.95645990    0.05052925    -0.22010000
opls_750-134    N    0.61515983    0.45794002    0.05287973    -0.20770000
opls_750-135    N    0.61685998    0.04354010    0.05052925    -0.21990000
opls_750-136    N    0.88484017    0.45794002    0.05287973    -0.20770000
opls_750-137    N    0.88314002    0.04354010    0.05052925    -0.22010000
opls_750-138    N    0.11515983    0.54205998    0.05287973    -0.20770000
opls_750-139    N    0.11685998    0.95645990    0.05052925    -0.22000000
opls_146-140    H    0.32793016    0.91064022    0.71606949    0.19770000
opls_146-141    H    0.28920014    0.81747003    0.72354035    0.19770000
opls_146-142    H    0.32426984    0.79744017    0.40849969    0.19770000
opls_146-143    H    0.37043985    0.88881993    0.39833013    0.19770000
opls_146-144    H    0.29004011    0.67276995    0.40696041    0.19770000
opls_146-145    H    0.33465982    0.58106017    0.38502068    0.19780000
opls_146-146    H    0.37447002    0.62189023    0.71271986    0.19770000
opls_146-147    H    0.32500991    0.70817005    0.72878935    0.19770000
opls_144-148    H    0.41747003    0.54702988    0.74396059    0.09280000
opls_146-149    H    0.41365986    0.44919022    0.24690066    0.19770000
opls_146-150    H    0.45259997    0.35505018    0.26353996    0.19770000
opls_146-151    H    0.50347997    0.37557013    0.59662070    0.19770000
opls_146-152    H    0.46312988    0.46949001    0.57528045    0.19770000
opls_146-153    H    0.44754987    0.24969017    0.81661951    0.19670000
opls_146-154    H    0.56183008    0.16058013    0.15265022    0.19740000
opls_146-155    H    0.59837001    0.25232981    0.25142948    0.19770000
opls_146-156    H    0.55981996    0.34288994    0.14639020    0.19770000
opls_146-157    H    0.45828987    0.15672982    0.59565914    0.19770000
opls_146-158    H    0.41210995    0.06628987    0.56034070    0.19770000
opls_146-159    H    0.44855989    0.02091990    0.22939082    0.19770000
opls_146-160    H    0.49525988    0.11046981    0.26537997    0.19770000
opls_144-161    H    0.37324000    0.98346978    0.72443068    0.09280000
opls_146-162    H    0.67206984    0.08935978    0.71606949    0.19770000
opls_146-163    H    0.71079986    0.18252997    0.72354035    0.19770000
opls_146-164    H    0.67573016    0.20255983    0.40849969    0.19770000
opls_146-165    H    0.62956015    0.11118007    0.39833013    0.19770000
opls_146-166    H    0.70995989    0.32723005    0.40696041    0.19770000
opls_146-167    H    0.66534018    0.41893983    0.38502068    0.19770000
opls_146-168    H    0.62552998    0.37810977    0.71271986    0.19770000
opls_146-169    H    0.67499009    0.29182995    0.72878935    0.19780000
opls_144-170    H    0.58252997    0.45297012    0.74396059    0.09280000
opls_146-171    H    0.58634014    0.55080978    0.24690066    0.19770000
opls_146-172    H    0.54740003    0.64494982    0.26353996    0.19770000
opls_146-173    H    0.49652003    0.62442987    0.59662070    0.19770000
opls_146-174    H    0.53687012    0.53050999    0.57528045    0.19770000
opls_146-175    H    0.55245013    0.75030983    0.81661951    0.19670000
opls_146-176    H    0.43816992    0.83941987    0.15265022    0.19730000
opls_146-177    H    0.40162999    0.74767019    0.25142948    0.19770000
opls_146-178    H    0.44018004    0.65711006    0.14639020    0.19770000
opls_146-179    H    0.54171013    0.84327018    0.59565914    0.19770000
opls_146-180    H    0.58789005    0.93371013    0.56034070    0.19770000
opls_146-181    H    0.55144011    0.97908010    0.22939082    0.19780000
opls_146-182    H    0.50474012    0.88953019    0.26537997    0.19770000
opls_144-183    H    0.62676000    0.01653022    0.72443068    0.09280000
opls_146-184    H    0.82793016    0.08935978    0.71606949    0.19770000
opls_146-185    H    0.78920014    0.18252997    0.72354035    0.19780000
opls_146-186    H    0.82426984    0.20255983    0.40849969    0.19770000
opls_146-187    H    0.87043985    0.11118007    0.39833013    0.19770000
opls_146-188    H    0.79004011    0.32723005    0.40696041    0.19770000
opls_146-189    H    0.83465982    0.41893983    0.38502068    0.19770000
opls_146-190    H    0.87447002    0.37810977    0.71271986    0.19770000
opls_146-191    H    0.82500991    0.29182995    0.72878935    0.19770000
opls_144-192    H    0.91747003    0.45297012    0.74396059    0.09280000
opls_146-193    H    0.91365986    0.55080978    0.24690066    0.19780000
opls_146-194    H    0.95259997    0.64494982    0.26353996    0.19770000
opls_146-195    H    0.00347997    0.62442987    0.59662070    0.19770000
opls_146-196    H    0.96312988    0.53050999    0.57528045    0.19770000
opls_146-197    H    0.94754987    0.75030983    0.81661951    0.19670000
opls_146-198    H    0.06183008    0.83941987    0.15265022    0.19730000
opls_146-199    H    0.09837001    0.74767019    0.25142948    0.19770000
opls_146-200    H    0.05981996    0.65711006    0.14639020    0.19780000
opls_146-201    H    0.95828987    0.84327018    0.59565914    0.19770000
opls_146-202    H    0.91210995    0.93371013    0.56034070    0.19770000
opls_146-203    H    0.94855989    0.97908010    0.22939082    0.19770000
opls_146-204    H    0.99525988    0.88953019    0.26537997    0.19770000
opls_144-205    H    0.87324000    0.01653022    0.72443068    0.09290000
opls_146-206    H    0.17206984    0.91064022    0.71606949    0.19770000
opls_146-207    H    0.21079986    0.81747003    0.72354035    0.19770000
opls_146-208    H    0.17573016    0.79744017    0.40849969    0.19770000
opls_146-209    H    0.12956015    0.88881993    0.39833013    0.19770000
opls_146-210    H    0.20995989    0.67276995    0.40696041    0.19770000
opls_146-211    H    0.16534018    0.58106017    0.38502068    0.19770000
opls_146-212    H    0.12552998    0.62189023    0.71271986    0.19780000
opls_146-213    H    0.17499009    0.70817005    0.72878935    0.19770000
opls_144-214    H    0.08252997    0.54702988    0.74396059    0.09280000
opls_146-215    H    0.08634014    0.44919022    0.24690066    0.19770000
opls_146-216    H    0.04740003    0.35505018    0.26353996    0.19770000
opls_146-217    H    0.99652003    0.37557013    0.59662070    0.19770000
opls_146-218    H    0.03687012    0.46949001    0.57528045    0.19770000
opls_146-219    H    0.05245013    0.24969017    0.81661951    0.19670000
opls_146-220    H    0.93816992    0.16058013    0.15265022    0.19740000
opls_146-221    H    0.90162999    0.25232981    0.25142948    0.19770000
opls_146-222    H    0.94018004    0.34288994    0.14639020    0.19770000
opls_146-223    H    0.04171013    0.15672982    0.59565914    0.19770000
opls_146-224    H    0.08789005    0.06628987    0.56034070    0.19770000
opls_146-225    H    0.05144011    0.02091990    0.22939082    0.19770000
opls_146-226    H    0.00474012    0.11046981    0.26537997    0.19770000
opls_144-227    H    0.12676000    0.98346978    0.72443068    0.09280000
