#======================================================================
# Crystal Data Generated By AuToFF
#----------------------------------------------------------------------

data_AuToFF_phase_1

_cell_length_a                         52.4367
_cell_length_b                         40.4077
_cell_length_c                         3.9526
_cell_angle_alpha                      90.00
_cell_angle_beta                       102.10
_cell_angle_gamma                      90.00
_symmetry_space_group_name_H-M_alt     'P 1'
_symmetry_space_group_IT_number        1

loop_
_space_group_symop_operation_xyz
   'x, y, z'

loop_
   _atom_site_label
   _atom_site_type_symbol
   _atom_site_fract_x
   _atom_site_fract_y
   _atom_site_fract_z
   _atom_site_charge
opls_700-0    C    0.09271002    0.53887997    0.64131816    0.09300000
opls_142-1    C    0.15576000    0.60731989    0.64888907    0.01660000
opls_145-2    C    0.16676006    0.68704009    0.26823967    -0.13250000
opls_145-3    C    0.18574996    0.71098009    0.25261916    -0.07590000
opls_700-4    C    0.21219994    0.70468995    0.39574983    0.08330000
opls_145-5    C    0.21919992    0.67355009    0.54489895    -0.07370000
opls_145-6    C    0.08856998    0.56789003    0.43958921    -0.07570000
opls_145-7    C    0.20025998    0.64967989    0.56033834    -0.13230000
opls_145-8    C    0.17369997    0.65651002    0.42864942    0.23360000
opls_716-9    C    0.25687997    0.72386996    0.32528029    0.12530000
opls_145-10    C    0.22730992    0.76242993    0.48691908    -0.10590000
opls_145-11    C    0.23226994    0.73093000    0.40061944    -0.00020000
opls_145-12    C    0.10885995    0.59043994    0.44022832    -0.07590000
opls_700-13    C    0.13376008    0.58449998    0.64501047    0.06660000
opls_145-14    C    0.13775995    0.55609995    0.85209804    -0.09050000
opls_145-15    C    0.11731993    0.53411008    0.85354961    -0.09080000
opls_700-16    C    0.42704004    0.96002990    0.64701834    0.09340000
opls_142-17    C    0.37173011    0.88275997    0.72326051    0.01660000
opls_145-18    C    0.30403992    0.86215993    0.33032843    -0.13240000
opls_145-19    C    0.28479995    0.83781012    0.30725085    -0.07380000
opls_700-20    C    0.29087011    0.80684003    0.46426067    0.07940000
opls_145-21    C    0.31635994    0.80085998    0.64930048    -0.07370000
opls_145-22    C    0.40208992    0.95997990    0.42989917    -0.07590000
opls_145-23    C    0.33556008    0.82518010    0.67297059    -0.13230000
opls_145-24    C    0.32952008    0.85624002    0.51418835    0.23090000
opls_716-25    C    0.27554003    0.74822002    0.34259041    0.15060000
opls_145-26    C    0.24604012    0.78766003    0.50390060    -0.07820000
opls_700-27    C    0.27072000    0.78072991    0.43476877    -0.00320000
opls_145-28    C    0.38355997    0.93595008    0.46315065    -0.07380000
opls_700-29    C    0.39026009    0.90958010    0.69524864    0.06420000
opls_145-30    C    0.41564993    0.90792992    0.89407963    -0.09060000
opls_145-31    C    0.43369011    0.93272990    0.86988944    -0.07380000
opls_716-32    C    0.07028994    0.51682006    0.66392999    -0.04720000
opls_716-33    C    0.44835001    0.98319998    0.60132892    -0.04720000
opls_700-34    C    0.59271002    0.03887997    0.64131816    0.09300000
opls_142-35    C    0.65576000    0.10731989    0.64888907    0.01660000
opls_145-36    C    0.66676006    0.18704009    0.26823967    -0.13250000
opls_145-37    C    0.68574996    0.21098009    0.25261916    -0.07590000
opls_700-38    C    0.71219994    0.20468995    0.39574983    0.08330000
opls_145-39    C    0.71919992    0.17355009    0.54489895    -0.07370000
opls_145-40    C    0.58856998    0.06789003    0.43958921    -0.07580000
opls_145-41    C    0.70025998    0.14967989    0.56033834    -0.13230000
opls_145-42    C    0.67369997    0.15651002    0.42864942    0.23360000
opls_716-43    C    0.75687997    0.22386996    0.32528029    0.12530000
opls_145-44    C    0.72730992    0.26242993    0.48691908    -0.10590000
opls_145-45    C    0.73226994    0.23093000    0.40061944    -0.00020000
opls_145-46    C    0.60885995    0.09043994    0.44022832    -0.07590000
opls_700-47    C    0.63376008    0.08449998    0.64501047    0.06660000
opls_145-48    C    0.63775995    0.05609995    0.85209804    -0.09050000
opls_145-49    C    0.61731993    0.03411008    0.85354961    -0.09080000
opls_700-50    C    0.92704004    0.46002990    0.64701834    0.09340000
opls_142-51    C    0.87173011    0.38275997    0.72326051    0.01660000
opls_145-52    C    0.80403992    0.36215993    0.33032843    -0.13250000
opls_145-53    C    0.78479995    0.33781012    0.30725085    -0.07380000
opls_700-54    C    0.79087011    0.30684003    0.46426067    0.07940000
opls_145-55    C    0.81635994    0.30085998    0.64930048    -0.07370000
opls_145-56    C    0.90208992    0.45997990    0.42989917    -0.07590000
opls_145-57    C    0.83556008    0.32518010    0.67297059    -0.13240000
opls_145-58    C    0.82952008    0.35624002    0.51418835    0.23090000
opls_716-59    C    0.77554003    0.24822002    0.34259041    0.15060000
opls_145-60    C    0.74604012    0.28766003    0.50390060    -0.07820000
opls_700-61    C    0.77072000    0.28072991    0.43476877    -0.00320000
opls_145-62    C    0.88355997    0.43595008    0.46315065    -0.07380000
opls_700-63    C    0.89026009    0.40958010    0.69524864    0.06420000
opls_145-64    C    0.91564993    0.40792992    0.89407963    -0.09060000
opls_145-65    C    0.93369011    0.43272990    0.86988944    -0.07380000
opls_716-66    C    0.57028994    0.01682006    0.66392999    -0.04720000
opls_716-67    C    0.94835001    0.48319998    0.60132892    -0.04720000
opls_700-68    C    0.09271002    0.46112003    0.64131816    0.09300000
opls_142-69    C    0.15576000    0.39268011    0.64888907    0.01660000
opls_145-70    C    0.16676006    0.31295991    0.26823967    -0.13250000
opls_145-71    C    0.18574996    0.28901991    0.25261916    -0.07590000
opls_700-72    C    0.21219994    0.29531005    0.39574983    0.08330000
opls_145-73    C    0.21919992    0.32644991    0.54489895    -0.07370000
opls_145-74    C    0.08856998    0.43210997    0.43958921    -0.07580000
opls_145-75    C    0.20025998    0.35032011    0.56033834    -0.13230000
opls_145-76    C    0.17369997    0.34348998    0.42864942    0.23360000
opls_716-77    C    0.25687997    0.27613004    0.32528029    0.12530000
opls_145-78    C    0.22730992    0.23757007    0.48691908    -0.10590000
opls_145-79    C    0.23226994    0.26907000    0.40061944    -0.00020000
opls_145-80    C    0.10885995    0.40956006    0.44022832    -0.07590000
opls_700-81    C    0.13376008    0.41550002    0.64501047    0.06660000
opls_145-82    C    0.13775995    0.44390005    0.85209804    -0.09050000
opls_145-83    C    0.11731993    0.46588992    0.85354961    -0.09080000
opls_700-84    C    0.42704004    0.03997010    0.64701834    0.09340000
opls_142-85    C    0.37173011    0.11724003    0.72326051    0.01660000
opls_145-86    C    0.30403992    0.13784007    0.33032843    -0.13250000
opls_145-87    C    0.28479995    0.16218988    0.30725085    -0.07380000
opls_700-88    C    0.29087011    0.19315997    0.46426067    0.07940000
opls_145-89    C    0.31635994    0.19914002    0.64930048    -0.07370000
opls_145-90    C    0.40208992    0.04002010    0.42989917    -0.07590000
opls_145-91    C    0.33556008    0.17481990    0.67297059    -0.13240000
opls_145-92    C    0.32952008    0.14375998    0.51418835    0.23090000
opls_716-93    C    0.27554003    0.25177998    0.34259041    0.15060000
opls_145-94    C    0.24604012    0.21233997    0.50390060    -0.07820000
opls_700-95    C    0.27072000    0.21927009    0.43476877    -0.00320000
opls_145-96    C    0.38355997    0.06404992    0.46315065    -0.07380000
opls_700-97    C    0.39026009    0.09041990    0.69524864    0.06420000
opls_145-98    C    0.41564993    0.09207008    0.89407963    -0.09060000
opls_145-99    C    0.43369011    0.06727010    0.86988944    -0.07380000
opls_716-100    C    0.07028994    0.48317994    0.66392999    -0.04720000
opls_716-101    C    0.44835001    0.01680002    0.60132892    -0.04720000
opls_700-102    C    0.59271002    0.96112003    0.64131816    0.09310000
opls_142-103    C    0.65576000    0.89268011    0.64888907    0.01660000
opls_145-104    C    0.66676006    0.81295991    0.26823967    -0.13250000
opls_145-105    C    0.68574996    0.78901991    0.25261916    -0.07590000
opls_700-106    C    0.71219994    0.79531005    0.39574983    0.08330000
opls_145-107    C    0.71919992    0.82644991    0.54489895    -0.07370000
opls_145-108    C    0.58856998    0.93210997    0.43958921    -0.07580000
opls_145-109    C    0.70025998    0.85032011    0.56033834    -0.13230000
opls_145-110    C    0.67369997    0.84348998    0.42864942    0.23360000
opls_716-111    C    0.75687997    0.77613004    0.32528029    0.12540000
opls_145-112    C    0.72730992    0.73757007    0.48691908    -0.10590000
opls_145-113    C    0.73226994    0.76907000    0.40061944    -0.00020000
opls_145-114    C    0.60885995    0.90956006    0.44022832    -0.07590000
opls_700-115    C    0.63376008    0.91550002    0.64501047    0.06670000
opls_145-116    C    0.63775995    0.94390005    0.85209804    -0.09050000
opls_145-117    C    0.61731993    0.96588992    0.85354961    -0.09080000
opls_700-118    C    0.92704004    0.53997010    0.64701834    0.09340000
opls_142-119    C    0.87173011    0.61724003    0.72326051    0.01660000
opls_145-120    C    0.80403992    0.63784007    0.33032843    -0.13250000
opls_145-121    C    0.78479995    0.66218988    0.30725085    -0.07380000
opls_700-122    C    0.79087011    0.69315997    0.46426067    0.07940000
opls_145-123    C    0.81635994    0.69914002    0.64930048    -0.07370000
opls_145-124    C    0.90208992    0.54002010    0.42989917    -0.07590000
opls_145-125    C    0.83556008    0.67481990    0.67297059    -0.13240000
opls_145-126    C    0.82952008    0.64375998    0.51418835    0.23090000
opls_716-127    C    0.77554003    0.75177998    0.34259041    0.15060000
opls_145-128    C    0.74604012    0.71233997    0.50390060    -0.07820000
opls_700-129    C    0.77072000    0.71927009    0.43476877    -0.00320000
opls_145-130    C    0.88355997    0.56404992    0.46315065    -0.07380000
opls_700-131    C    0.89026009    0.59041990    0.69524864    0.06420000
opls_145-132    C    0.91564993    0.59207008    0.89407963    -0.09060000
opls_145-133    C    0.93369011    0.56727010    0.86988944    -0.07380000
opls_716-134    C    0.57028994    0.98317994    0.66392999    -0.04720000
opls_716-135    C    0.94835001    0.51680002    0.60132892    -0.04720000
opls_716-136    C    0.02226007    0.50000000    0.68245881    -0.05960000
opls_716-137    C    0.52226007    0.00000000    0.68245881    -0.05960000
opls_716-138    C    0.49795994    1.00000000    0.75581856    -0.05940000
opls_716-139    C    0.99795994    0.50000000    0.75581856    -0.05940000
opls_146-140    H    0.14540011    0.69229998    0.14965108    0.05020000
opls_146-141    H    0.17984003    0.73583005    0.12312959    0.05020000
opls_146-142    H    0.24057000    0.66755000    0.65508863    0.05020000
opls_146-143    H    0.20623997    0.62445004    0.68014045    0.05030000
opls_146-144    H    0.20760000    0.76895988    0.54770893    0.05020000
opls_146-145    H    0.06849002    0.57326995    0.27282983    0.05020000
opls_146-146    H    0.10520999    0.61371991    0.27419860    0.05020000
opls_146-147    H    0.15781004    0.55087991    0.02053928    0.05020000
opls_146-148    H    0.29907002    0.88712993    0.19878958    0.05020000
opls_146-149    H    0.26406992    0.84307001    0.16036059    0.05020000
opls_146-150    H    0.32153001    0.77596993    0.78184843    0.05020000
opls_146-151    H    0.35626000    0.81996996    0.82135899    0.05030000
opls_146-152    H    0.24124995    0.81397011    0.57416832    0.05020000
opls_146-153    H    0.39662995    0.97978009    0.22183094    0.05030000
opls_146-154    H    0.36289003    0.93774998    0.30103059    0.05020000
opls_146-155    H    0.42171997    0.88621995    0.07742982    0.05020000
opls_144-156    H    0.37747998    0.86242993    0.92472812    0.02970000
opls_144-157    H    0.17535002    0.60252006    0.83052896    0.02970000
opls_146-158    H    0.45435006    0.06880991    0.03266930    0.05020000
opls_146-159    H    0.12046007    0.51157007    0.03084773    0.05020000
opls_146-160    H    0.64540011    0.19229998    0.14965108    0.05020000
opls_146-161    H    0.67984003    0.23583005    0.12312959    0.05020000
opls_146-162    H    0.74057000    0.16755000    0.65508863    0.05030000
opls_146-163    H    0.70623997    0.12445004    0.68014045    0.05020000
opls_146-164    H    0.70760000    0.26895988    0.54770893    0.05020000
opls_146-165    H    0.56849002    0.07326995    0.27282983    0.05020000
opls_146-166    H    0.60520999    0.11371991    0.27419860    0.05020000
opls_146-167    H    0.65781004    0.05087991    0.02053928    0.05020000
opls_146-168    H    0.79907002    0.38712993    0.19878958    0.05020000
opls_146-169    H    0.76406992    0.34307001    0.16036059    0.05020000
opls_146-170    H    0.82153001    0.27596993    0.78184843    0.05020000
opls_146-171    H    0.85626000    0.31996996    0.82135899    0.05020000
opls_146-172    H    0.74124995    0.31397011    0.57416832    0.05020000
opls_146-173    H    0.89662995    0.47978009    0.22183094    0.05020000
opls_146-174    H    0.86289003    0.43774998    0.30103059    0.05020000
opls_146-175    H    0.92171997    0.38621995    0.07742982    0.05020000
opls_144-176    H    0.87747998    0.36242993    0.92472812    0.02970000
opls_144-177    H    0.67535002    0.10252006    0.83052896    0.02970000
opls_146-178    H    0.95435006    0.56880991    0.03266930    0.05020000
opls_146-179    H    0.62046007    0.01157007    0.03084773    0.05030000
opls_146-180    H    0.14540011    0.30770002    0.14965108    0.05020000
opls_146-181    H    0.17984003    0.26416995    0.12312959    0.05020000
opls_146-182    H    0.24057000    0.33245000    0.65508863    0.05020000
opls_146-183    H    0.20623997    0.37554996    0.68014045    0.05020000
opls_146-184    H    0.20760000    0.23104012    0.54770893    0.05020000
opls_146-185    H    0.06849002    0.42673005    0.27282983    0.05020000
opls_146-186    H    0.10520999    0.38628009    0.27419860    0.05020000
opls_146-187    H    0.15781004    0.44912009    0.02053928    0.05020000
opls_146-188    H    0.29907002    0.11287007    0.19878958    0.05020000
opls_146-189    H    0.26406992    0.15692999    0.16036059    0.05020000
opls_146-190    H    0.32153001    0.22403007    0.78184843    0.05020000
opls_146-191    H    0.35626000    0.18003004    0.82135899    0.05020000
opls_146-192    H    0.24124995    0.18602989    0.57416832    0.05020000
opls_146-193    H    0.39662995    0.02021991    0.22183094    0.05020000
opls_146-194    H    0.36289003    0.06225002    0.30103059    0.05020000
opls_146-195    H    0.42171997    0.11378005    0.07742982    0.05020000
opls_144-196    H    0.37747998    0.13757007    0.92472812    0.02970000
opls_144-197    H    0.17535002    0.39747994    0.83052896    0.02970000
opls_146-198    H    0.45435006    0.93119009    0.03266930    0.05020000
opls_146-199    H    0.12046007    0.48842993    0.03084773    0.05020000
opls_146-200    H    0.64540011    0.80770002    0.14965108    0.05020000
opls_146-201    H    0.67984003    0.76416995    0.12312959    0.05030000
opls_146-202    H    0.74057000    0.83245000    0.65508863    0.05020000
opls_146-203    H    0.70623997    0.87554996    0.68014045    0.05020000
opls_146-204    H    0.70760000    0.73104012    0.54770893    0.05020000
opls_146-205    H    0.56849002    0.92673005    0.27282983    0.05020000
opls_146-206    H    0.60520999    0.88628009    0.27419860    0.05020000
opls_146-207    H    0.65781004    0.94912009    0.02053928    0.05020000
opls_146-208    H    0.79907002    0.61287007    0.19878958    0.05020000
opls_146-209    H    0.76406992    0.65692999    0.16036059    0.05020000
opls_146-210    H    0.82153001    0.72403007    0.78184843    0.05020000
opls_146-211    H    0.85626000    0.68003004    0.82135899    0.05020000
opls_146-212    H    0.74124995    0.68602989    0.57416832    0.05020000
opls_146-213    H    0.89662995    0.52021991    0.22183094    0.05020000
opls_146-214    H    0.86289003    0.56225002    0.30103059    0.05020000
opls_146-215    H    0.92171997    0.61378005    0.07742982    0.05020000
opls_144-216    H    0.87747998    0.63757007    0.92472812    0.02970000
opls_144-217    H    0.67535002    0.89747994    0.83052896    0.02970000
opls_146-218    H    0.95435006    0.43119009    0.03266930    0.05020000
opls_146-219    H    0.62046007    0.98842993    0.03084773    0.05020000
opls_750-220    N    0.15337997    0.63311003    0.44808903    -0.27010000
opls_750-221    N    0.34873005    0.88177996    0.52108911    -0.27010000
opls_750-222    N    0.26370007    0.30490996    0.23286906    -0.29450000
opls_750-223    N    0.29893004    0.26279991    0.25333071    -0.29510000
opls_750-224    N    0.65337997    0.13311003    0.44808903    -0.27010000
opls_750-225    N    0.84873005    0.38177996    0.52108911    -0.27010000
opls_750-226    N    0.76370007    0.80490996    0.23286906    -0.29460000
opls_750-227    N    0.79893004    0.76279991    0.25333071    -0.29500000
opls_750-228    N    0.15337997    0.36688997    0.44808903    -0.27000000
opls_750-229    N    0.34873005    0.11822004    0.52108911    -0.27010000
opls_750-230    N    0.26370007    0.69509004    0.23286906    -0.29460000
opls_750-231    N    0.29893004    0.73720009    0.25333071    -0.29510000
opls_750-232    N    0.65337997    0.86688997    0.44808903    -0.27000000
opls_750-233    N    0.84873005    0.61822004    0.52108911    -0.27010000
opls_750-234    N    0.76370007    0.19509004    0.23286906    -0.29460000
opls_750-235    N    0.79893004    0.23720009    0.25333071    -0.29500000
opls_633-236    S    0.04026010    0.53799994    0.68887055    0.09720000
opls_633-237    S    0.47910009    0.96389005    0.57524988    0.09800000
opls_202-238    S    0.29594007    0.30566996    0.15145972    0.53310000
opls_633-239    S    0.54026010    0.03799994    0.68887055    0.09720000
opls_633-240    S    0.97910009    0.46389005    0.57524988    0.09800000
opls_202-241    S    0.79594007    0.80566996    0.15145972    0.53310000
opls_633-242    S    0.04026010    0.46200006    0.68887055    0.09720000
opls_633-243    S    0.47910009    0.03610995    0.57524988    0.09800000
opls_202-244    S    0.29594007    0.69433004    0.15145972    0.53310000
opls_633-245    S    0.54026010    0.96200006    0.68887055    0.09720000
opls_633-246    S    0.97910009    0.53610995    0.57524988    0.09800000
opls_202-247    S    0.79594007    0.19433004    0.15145972    0.53300000
