#======================================================================
# Crystal Data Generated By AuToFF
#----------------------------------------------------------------------

data_AuToFF_phase_1

_cell_length_a                         23.2820
_cell_length_b                         23.2820
_cell_length_c                         3.4350
_cell_angle_alpha                      90.00
_cell_angle_beta                       90.00
_cell_angle_gamma                      120.00
_symmetry_space_group_name_H-M_alt     'P 1'
_symmetry_space_group_IT_number        1

loop_
_space_group_symop_operation_xyz
   'x, y, z'

loop_
   _atom_site_label
   _atom_site_type_symbol
   _atom_site_fract_x
   _atom_site_fract_y
   _atom_site_fract_z
   _atom_site_charge
opls_641-0    N    0.04007994    0.06688010    0.80788064    -0.38350000
opls_641-1    N    0.93312013    0.97320015    0.80788064    -0.38350000
opls_641-2    N    0.02680017    0.95992025    0.80788064    -0.38350000
opls_642-3    C    0.06716992    0.02684994    0.80788064    0.40770000
opls_142-4    C    0.13969012    0.05495021    0.80788064    -0.15470000
opls_142-5    C    0.18208001    0.12016982    0.80788064    -0.08200000
opls_700-6    C    0.25487012    0.14968010    0.80788064    0.11520000
opls_145-7    C    0.29459000    0.21886990    0.80788064    -0.07580000
opls_145-8    C    0.36384020    0.24895005    0.80788064    -0.07580000
opls_700-9    C    0.39419006    0.21011020    0.80788064    0.15350000
opls_145-10    C    0.35480996    0.14086982    0.80788064    -0.07600000
opls_145-11    C    0.28544024    0.11073016    0.80788064    -0.07820000
opls_261-12    C    0.46562991    0.24153987    0.80788064    -0.06930000
opls_261-13    C    0.52559996    0.26859018    0.80788064    -0.06930000
opls_700-14    C    0.59711994    0.30136985    0.80788064    0.12550000
opls_145-15    C    0.63481017    0.37081011    0.80788064    -0.08180000
opls_642-16    C    0.97314976    0.04031980    0.80788064    0.40770000
opls_142-17    C    0.94505029    0.08474021    0.80788064    -0.15470000
opls_142-18    C    0.87983012    0.06191005    0.80788064    -0.08200000
opls_700-19    C    0.85031998    0.10519025    0.80788064    0.11520000
opls_145-20    C    0.78112998    0.07572014    0.80788064    -0.07580000
opls_145-21    C    0.75104983    0.11488980    0.80788064    -0.07580000
opls_700-22    C    0.78988989    0.18408009    0.80788064    0.15360000
opls_145-23    C    0.85913005    0.21394003    0.80788064    -0.07600000
opls_145-24    C    0.88927014    0.17470986    0.80788064    -0.07820000
opls_261-25    C    0.75845978    0.22408991    0.80788064    -0.06930000
opls_261-26    C    0.73140979    0.25700994    0.80788064    -0.06930000
opls_700-27    C    0.69863014    0.29575009    0.80788064    0.12560000
opls_145-28    C    0.62919012    0.26400004    0.80788064    -0.08180000
opls_642-29    C    0.95968031    0.93283026    0.80788064    0.40770000
opls_142-30    C    0.91525984    0.86031008    0.80788064    -0.15470000
opls_142-31    C    0.93808986    0.81792013    0.80788064    -0.08190000
opls_700-32    C    0.89481015    0.74513014    0.80788064    0.11520000
opls_145-33    C    0.92428002    0.70540996    0.80788064    -0.07580000
opls_145-34    C    0.88510997    0.63616016    0.80788064    -0.07580000
opls_700-35    C    0.81592031    0.60581020    0.80788064    0.15350000
opls_145-36    C    0.78605998    0.64519015    0.80788064    -0.07600000
opls_145-37    C    0.82529004    0.71455998    0.80788064    -0.07820000
opls_261-38    C    0.77591031    0.53437023    0.80788064    -0.06930000
opls_261-39    C    0.74298982    0.47439988    0.80788064    -0.06930000
opls_700-40    C    0.70424992    0.40288006    0.80788064    0.12550000
opls_145-41    C    0.73600013    0.36518985    0.80788064    -0.08180000
opls_144-42    H    0.16141026    0.02061023    0.80788064    0.04920000
opls_144-43    H    0.16259000    0.15638007    0.80788064    0.04920000
opls_146-44    H    0.27008975    0.25074990    0.80788064    0.04920000
opls_146-45    H    0.39572021    0.30533011    0.80788064    0.04920000
opls_146-46    H    0.37911970    0.10880979    0.80788064    0.04920000
opls_146-47    H    0.25356024    0.05435009    0.80788064    0.04920000
opls_146-48    H    0.60898989    0.40147003    0.80788064    0.04920000
opls_144-49    H    0.97939015    0.14079989    0.80788064    0.04920000
opls_144-50    H    0.84361997    0.00620995    0.80788064    0.04920000
opls_146-51    H    0.74924997    0.01934007    0.80788064    0.04920000
opls_146-52    H    0.69467024    0.09039022    0.80788064    0.04920000
opls_146-53    H    0.89119022    0.27031018    0.80788064    0.04920000
opls_146-54    H    0.94564998    0.19920993    0.80788064    0.04920000
opls_146-55    H    0.59853010    0.20751979    0.80788064    0.04920000
opls_144-56    H    0.85920026    0.83859037    0.80788064    0.04920000
opls_144-57    H    0.99379004    0.83740998    0.80788064    0.04920000
opls_146-58    H    0.98065985    0.72991003    0.80788064    0.04920000
opls_146-59    H    0.90961023    0.60428016    0.80788064    0.04920000
opls_146-60    H    0.72969008    0.62088004    0.80788064    0.04920000
opls_146-61    H    0.80078979    0.74643998    0.80788064    0.04920000
opls_146-62    H    0.79248000    0.39101018    0.80788064    0.04920000
