#======================================================================
# Crystal Data Generated By AuToFF
#----------------------------------------------------------------------

data_AuToFF_phase_1

_cell_length_a                         14.4400
_cell_length_b                         47.7000
_cell_length_c                         6.7900
_cell_angle_alpha                      90.00
_cell_angle_beta                       91.21
_cell_angle_gamma                      90.00
_symmetry_space_group_name_H-M_alt     'P 1'
_symmetry_space_group_IT_number        1

loop_
_space_group_symop_operation_xyz
   'x, y, z'

loop_
   _atom_site_label
   _atom_site_type_symbol
   _atom_site_fract_x
   _atom_site_fract_y
   _atom_site_fract_z
   _atom_site_charge
opls_633-0    S    0.90787949    0.02814990    0.65545946    0.08040000
opls_633-1    S    0.90639996    0.53950000    0.16072941    0.08040000
opls_633-2    S    0.09194951    0.02814004    0.89552905    0.08040000
opls_633-3    S    0.09339007    0.53950000    0.39037989    0.08040000
opls_633-4    S    0.09339996    0.96041992    0.89032907    0.08040000
opls_633-5    S    0.09191975    0.47177002    0.39560049    0.08040000
opls_633-6    S    0.90640986    0.96041992    0.66068006    0.08040000
opls_633-7    S    0.90784971    0.47177002    0.15552943    0.08040000
opls_633-8    S    0.40639996    0.03950000    0.66073015    0.08040000
opls_633-9    S    0.40788019    0.52814990    0.15546020    0.08040000
opls_633-10    S    0.59339007    0.03950000    0.89037916    0.08040000
opls_633-11    S    0.59195021    0.52814004    0.39552979    0.08040000
opls_633-12    S    0.59191974    0.97177002    0.89559976    0.08040000
opls_633-13    S    0.59339996    0.46041992    0.39032981    0.08040000
opls_633-14    S    0.40784972    0.97177002    0.65553017    0.08040000
opls_633-15    S    0.40640985    0.46041992    0.16067933    0.08040000
opls_716-16    C    0.95929959    0.06118008    0.72489906    -0.05420000
opls_700-17    C    0.91036970    0.08740000    0.66933000    0.07490000
opls_145-18    C    0.89342950    0.10788994    0.81260928    -0.11930000
opls_145-19    C    0.86521003    0.13470000    0.75675003    -0.16830000
opls_145-20    C    0.84838009    0.14104004    0.55717987    0.19020000
opls_145-21    C    0.85793016    0.11997002    0.41547973    -0.16980000
opls_145-22    C    0.88981008    0.09332998    0.47062012    -0.13010000
opls_700-23    C    0.80227969    0.21844990    0.53019007    0.05660000
opls_145-24    C    0.19292998    0.23057002    0.51143038    -0.12820000
opls_142-25    C    0.84642969    0.19138994    0.57744948    0.07050000
opls_145-26    C    0.85028962    0.24345996    0.56962005    -0.12260000
opls_716-27    C    0.95833980    0.57251006    0.22874012    -0.05400000
opls_700-28    C    0.90747020    0.59874004    0.18245000    0.07590000
opls_145-29    C    0.89382985    0.61871992    0.33096020    -0.11930000
opls_145-30    C    0.86193991    0.64544004    0.28311009    -0.16690000
opls_145-31    C    0.83824990    0.65224990    0.08724031    0.19000000
opls_145-32    C    0.84561982    0.63174004    0.94071878    -0.16690000
opls_145-33    C    0.88080988    0.60515010    0.98747881    -0.13050000
opls_700-34    C    0.78542008    0.72937002    0.07976001    0.05440000
opls_145-35    C    0.21021983    0.71968994    0.95943870    -0.12260000
opls_142-36    C    0.83175982    0.70237002    0.11816030    0.07050000
opls_145-37    C    0.83313970    0.75437002    0.12043032    -0.11780000
opls_716-38    C    0.04053010    0.06118008    0.82608945    -0.05890000
opls_700-39    C    0.08944980    0.08740000    0.88167914    0.07480000
opls_145-40    C    0.10639971    0.10788994    0.73839985    -0.11930000
opls_145-41    C    0.13459999    0.13470000    0.79427973    -0.16830000
opls_145-42    C    0.15143963    0.14104004    0.99384988    0.19020000
opls_145-43    C    0.14189014    0.11995996    0.13553972    -0.16920000
opls_145-44    C    0.11001983    0.09331992    0.08039048    -0.12820000
opls_700-45    C    0.19750986    0.21844990    0.02087062    0.05660000
opls_145-46    C    0.80687976    0.23057002    0.03964063    -0.12910000
opls_142-47    C    0.15336944    0.19138994    0.97359943    0.07050000
opls_145-48    C    0.14949981    0.24345996    0.98142886    -0.12260000
opls_716-49    C    0.04145984    0.57251006    0.32236035    -0.05340000
opls_700-50    C    0.09233972    0.59874004    0.36864015    0.07590000
opls_145-51    C    0.10598007    0.61871992    0.22012996    -0.11930000
opls_145-52    C    0.13788020    0.64544004    0.26795944    -0.16690000
opls_145-53    C    0.16155992    0.65224990    0.46383953    0.19000000
opls_145-54    C    0.15417960    0.63174004    0.61035959    -0.16870000
opls_145-55    C    0.11898964    0.60515010    0.56360987    -0.13010000
opls_700-56    C    0.21438953    0.72937002    0.47129921    0.05510000
opls_145-57    C    0.78956960    0.71968994    0.59161021    -0.12420000
opls_142-58    C    0.16804981    0.70237002    0.43290039    0.07050000
opls_145-59    C    0.16666993    0.75435996    0.43063038    -0.11780000
opls_716-60    C    0.04145943    0.92741006    0.82231984    -0.05340000
opls_700-61    C    0.09232973    0.90117002    0.86860996    0.07490000
opls_145-62    C    0.10595979    0.88120000    0.72011007    -0.11770000
opls_145-63    C    0.13786002    0.85448008    0.76794987    -0.16690000
opls_145-64    C    0.16153975    0.84767002    0.96382995    0.19030000
opls_145-65    C    0.15416970    0.86818008    0.11033971    -0.16690000
opls_145-66    C    0.11899003    0.89477002    0.06357968    -0.13050000
opls_700-67    C    0.21437985    0.77054990    0.97129995    0.05660000
opls_145-68    C    0.78956970    0.78022998    0.09161979    -0.12400000
opls_142-69    C    0.16802972    0.79754990    0.93289966    0.06990000
opls_145-70    C    0.16665953    0.74555010    0.93062964    -0.11780000
opls_716-71    C    0.04049964    0.43874004    0.32615943    -0.05420000
opls_700-72    C    0.08941984    0.41251992    0.38172996    0.07490000
opls_145-73    C    0.10636973    0.39202998    0.23844920    -0.11930000
opls_145-74    C    0.13457961    0.36521992    0.29432024    -0.16830000
opls_145-75    C    0.15141994    0.35888008    0.49389039    0.19150000
opls_145-76    C    0.14186977    0.37995010    0.63558022    -0.16900000
opls_145-77    C    0.10998985    0.40658994    0.58043983    -0.13010000
opls_700-78    C    0.19750996    0.28147002    0.52088020    0.05660000
opls_145-79    C    0.80687005    0.26934990    0.53963989    -0.12820000
opls_142-80    C    0.15336964    0.30852998    0.47361932    0.07050000
opls_145-81    C    0.14950962    0.25645996    0.48143991    -0.12400000
opls_716-82    C    0.95834009    0.92741006    0.72869961    -0.05400000
opls_700-83    C    0.90745961    0.90118008    0.68243011    0.07590000
opls_145-84    C    0.89381995    0.88120000    0.83093884    -0.11930000
opls_145-85    C    0.86191972    0.85448008    0.78309904    -0.16690000
opls_145-86    C    0.83822970    0.84767002    0.58722927    0.19010000
opls_145-87    C    0.84560995    0.86818008    0.44070036    -0.16690000
opls_145-88    C    0.88080000    0.89477002    0.48746039    -0.13010000
opls_700-89    C    0.78540969    0.77054990    0.57975927    0.05510000
opls_145-90    C    0.21021994    0.78022998    0.45944975    -0.12260000
opls_142-91    C    0.83175012    0.79754990    0.61815956    0.07050000
opls_145-92    C    0.83313000    0.74555996    0.62042958    -0.11780000
opls_716-93    C    0.95926982    0.43874004    0.22497050    -0.05890000
opls_700-94    C    0.91033972    0.41251992    0.16937935    0.07490000
opls_145-95    C    0.89340022    0.39202998    0.31266011    -0.11930000
opls_145-96    C    0.86519025    0.36521992    0.25678023    -0.16830000
opls_145-97    C    0.84836030    0.35888008    0.05721007    0.19000000
opls_145-98    C    0.85789948    0.37995010    0.91552908    -0.16900000
opls_145-99    C    0.88977940    0.40658994    0.97066947    -0.13010000
opls_700-100    C    0.80227978    0.28145996    0.03019965    0.05660000
opls_145-101    C    0.19292017    0.26934990    0.01141933    -0.12820000
opls_142-102    C    0.84642010    0.30852998    0.07746053    0.07050000
opls_145-103    C    0.85028972    0.25645996    0.06962962    -0.12210000
opls_716-104    C    0.99991005    0.00840000    0.77549941    -0.07470000
opls_716-105    C    0.99988988    0.51975996    0.27556054    -0.07470000
opls_716-106    C    0.99991005    0.98015996    0.77549941    -0.07470000
opls_716-107    C    0.99988997    0.49151992    0.27556938    -0.07470000
opls_716-108    C    0.45833980    0.07251006    0.72873938    -0.05400000
opls_700-109    C    0.40746950    0.09874004    0.68244926    0.07590000
opls_145-110    C    0.39382985    0.11871992    0.83095946    -0.11930000
opls_145-111    C    0.36193990    0.14544004    0.78310935    -0.16690000
opls_145-112    C    0.33824989    0.15224990    0.58723958    0.19000000
opls_145-113    C    0.34561983    0.13174004    0.44071951    -0.16690000
opls_145-114    C    0.38080989    0.10514990    0.48747954    -0.13050000
opls_700-115    C    0.28542008    0.22937002    0.57975927    0.05440000
opls_145-116    C    0.71021984    0.21968994    0.45943943    -0.12260000
opls_142-117    C    0.33175981    0.20237002    0.61815956    0.07050000
opls_145-118    C    0.33313969    0.25437002    0.62042958    -0.11780000
opls_716-119    C    0.45929959    0.56118008    0.22489979    -0.05420000
opls_700-120    C    0.41036970    0.58740000    0.16932926    0.07490000
opls_145-121    C    0.39343020    0.60788994    0.31261002    -0.11930000
opls_145-122    C    0.36521002    0.63470000    0.25674929    -0.16830000
opls_145-123    C    0.34838009    0.64104004    0.05718061    0.19020000
opls_145-124    C    0.35792946    0.61997002    0.91547899    -0.16980000
opls_145-125    C    0.38981007    0.59332998    0.97061939    -0.13010000
opls_700-126    C    0.30227968    0.71845010    0.03018934    0.05660000
opls_145-127    C    0.69292997    0.73057002    0.01142964    -0.12820000
opls_142-128    C    0.34642970    0.69138994    0.07745021    0.07010000
opls_145-129    C    0.35029031    0.74345996    0.06961931    -0.12260000
opls_716-130    C    0.54145983    0.07251006    0.82235961    -0.05340000
opls_700-131    C    0.59233972    0.09874004    0.86863942    0.07590000
opls_145-132    C    0.60598006    0.11871992    0.72012922    -0.11930000
opls_145-133    C    0.63787951    0.14544004    0.76796018    -0.16690000
opls_145-134    C    0.66155992    0.15224990    0.96383879    0.19010000
opls_145-135    C    0.65418030    0.13174004    0.11036033    -0.16870000
opls_145-136    C    0.61898965    0.10514990    0.06361061    -0.13010000
opls_700-137    C    0.71438954    0.22937002    0.97129995    0.05510000
opls_145-138    C    0.28957029    0.21968994    0.09160947    -0.12420000
opls_142-139    C    0.66804980    0.20237002    0.93289966    0.07050000
opls_145-140    C    0.66666992    0.25435996    0.93062964    -0.11780000
opls_716-141    C    0.54053011    0.56118008    0.32609019    -0.05890000
opls_700-142    C    0.58944981    0.58740000    0.38167987    0.07480000
opls_145-143    C    0.60639971    0.60788994    0.23840059    -0.11930000
opls_145-144    C    0.63460000    0.63470000    0.29428047    -0.16830000
opls_145-145    C    0.65143962    0.64104004    0.49384915    0.19020000
opls_145-146    C    0.64189014    0.61995996    0.63553898    -0.16920000
opls_145-147    C    0.61001983    0.59331992    0.58038975    -0.12820000
opls_700-148    C    0.69750986    0.71845010    0.52086988    0.05660000
opls_145-149    C    0.30687975    0.73057002    0.53963989    -0.12910000
opls_142-150    C    0.65337014    0.69138994    0.47360017    0.07050000
opls_145-151    C    0.64949982    0.74345996    0.48142960    -0.12260000
opls_716-152    C    0.54049964    0.93874004    0.82616016    -0.05420000
opls_700-153    C    0.58941983    0.91251992    0.88172922    0.07490000
opls_145-154    C    0.60636973    0.89202998    0.73844994    -0.11930000
opls_145-155    C    0.63457961    0.86521992    0.79431950    -0.16830000
opls_145-156    C    0.65141994    0.85888008    0.99388966    0.19150000
opls_145-157    C    0.64186976    0.87995010    0.13557949    -0.16900000
opls_145-158    C    0.60998986    0.90658994    0.08044057    -0.13010000
opls_700-159    C    0.69750995    0.78147002    0.02087946    0.05660000
opls_145-160    C    0.30687006    0.76934990    0.03964063    -0.12820000
opls_142-161    C    0.65336964    0.80852998    0.97362005    0.07050000
opls_145-162    C    0.64950961    0.75645996    0.98143917    -0.12400000
opls_716-163    C    0.54146012    0.42741006    0.32231910    -0.05340000
opls_700-164    C    0.59232972    0.40117002    0.36860922    0.07490000
opls_145-165    C    0.60595978    0.38120000    0.22010933    -0.11770000
opls_145-166    C    0.63786001    0.35448008    0.26794913    -0.16690000
opls_145-167    C    0.66153974    0.34767002    0.46382922    0.19030000
opls_145-168    C    0.65416970    0.36818008    0.61033897    -0.16690000
opls_145-169    C    0.61899002    0.39477002    0.56357894    -0.13050000
opls_700-170    C    0.71437984    0.27054990    0.47129921    0.05660000
opls_145-171    C    0.28956969    0.28022998    0.59161905    -0.12400000
opls_142-172    C    0.66802973    0.29754990    0.43290039    0.06990000
opls_145-173    C    0.66666023    0.24555010    0.43063038    -0.11780000
opls_716-174    C    0.45926982    0.93874004    0.72496976    -0.05890000
opls_700-175    C    0.41033973    0.91251992    0.66938008    0.07490000
opls_145-176    C    0.39339952    0.89202998    0.81265937    -0.11930000
opls_145-177    C    0.36518955    0.86521992    0.75677949    -0.16830000
opls_145-178    C    0.34835960    0.85888008    0.55720934    0.19000000
opls_145-179    C    0.35790018    0.87995010    0.41552982    -0.16900000
opls_145-180    C    0.38978010    0.90658994    0.47067021    -0.13010000
opls_700-181    C    0.30227979    0.78145996    0.53020038    0.05660000
opls_145-182    C    0.69292018    0.76934990    0.51142007    -0.12820000
opls_142-183    C    0.34642010    0.80852998    0.57745979    0.07050000
opls_145-184    C    0.35028972    0.75645996    0.56963036    -0.12210000
opls_716-185    C    0.45834010    0.42741006    0.22870034    -0.05400000
opls_700-186    C    0.40745961    0.40118008    0.18242938    0.07590000
opls_145-187    C    0.39381995    0.38120000    0.33093958    -0.11930000
opls_145-188    C    0.36191973    0.35448008    0.28309978    -0.16690000
opls_145-189    C    0.33822971    0.34767002    0.08723000    0.19010000
opls_145-190    C    0.34560994    0.36818008    0.94069963    -0.16690000
opls_145-191    C    0.38080000    0.39477002    0.98745966    -0.13010000
opls_700-192    C    0.28540969    0.27054990    0.07976001    0.05510000
opls_145-193    C    0.71021993    0.28022998    0.95944901    -0.12260000
opls_142-194    C    0.33175013    0.29754990    0.11816030    0.07050000
opls_145-195    C    0.33313001    0.24555996    0.12043032    -0.11780000
opls_716-196    C    0.49988987    0.01975996    0.77555981    -0.07470000
opls_716-197    C    0.49991006    0.50840000    0.27550015    -0.07470000
opls_716-198    C    0.49988998    0.99151992    0.77557012    -0.07470000
opls_716-199    C    0.49991006    0.48015996    0.27550015    -0.07470000
opls_750-200    N    0.81614963    0.16825996    0.49833026    -0.35090000
opls_750-201    N    0.80144014    0.67931992    0.03798046    -0.35080000
opls_750-202    N    0.18365011    0.16825996    0.05270981    -0.35080000
opls_750-203    N    0.19836958    0.67931992    0.51308907    -0.35080000
opls_750-204    N    0.19835009    0.82058994    0.01307949    -0.35080000
opls_750-205    N    0.18363992    0.33165996    0.55272969    -0.35080000
opls_750-206    N    0.80142005    0.82060000    0.53797973    -0.35080000
opls_750-207    N    0.81613942    0.33165010    0.99834868    -0.35080000
opls_750-208    N    0.30144013    0.17931992    0.53797973    -0.35080000
opls_750-209    N    0.31614962    0.66825996    0.99832953    -0.35080000
opls_750-210    N    0.69837028    0.17931992    0.01308980    -0.35080000
opls_750-211    N    0.68365010    0.66825996    0.55270907    -0.35080000
opls_750-212    N    0.68363992    0.83165996    0.05273043    -0.35080000
opls_750-213    N    0.69835010    0.32058994    0.51308023    -0.35080000
opls_750-214    N    0.31614012    0.83165010    0.49834941    -0.35080000
opls_750-215    N    0.30142006    0.32060000    0.03798046    -0.35080000
opls_146-216    H    0.90704975    0.10350000    0.96692932    0.11810000
opls_146-217    H    0.85598973    0.15042998    0.86944961    0.12030000
opls_146-218    H    0.32712020    0.13670000    0.28941046    0.11760000
opls_146-219    H    0.39070021    0.09001992    0.37077023    0.11530000
opls_146-220    H    0.15424992    0.21152998    0.48143991    0.11320000
opls_144-221    H    0.90389948    0.19101006    0.68292949    0.10350000
opls_146-222    H    0.92111980    0.25697002    0.12540049    0.11450000
opls_146-223    H    0.91197989    0.61398994    0.48297928    0.11320000
opls_146-224    H    0.85472015    0.66068008    0.39956014    0.11720000
opls_146-225    H    0.34393013    0.62454004    0.76168927    0.12270000
opls_146-226    H    0.40217005    0.57780000    0.85775924    0.11320000
opls_146-227    H    0.17141986    0.70071006    0.92908880    0.12060000
opls_144-228    H    0.89209023    0.70204004    0.21608929    0.10350000
opls_146-229    H    0.90421012    0.74604004    0.67466992    0.11450000
opls_146-230    H    0.09276986    0.10350000    0.58409013    0.11800000
opls_146-231    H    0.14381960    0.15042998    0.68158015    0.12030000
opls_146-232    H    0.67268962    0.13671006    0.26166938    0.11800000
opls_146-233    H    0.60910002    0.09002998    0.18031992    0.11590000
opls_146-234    H    0.84555980    0.21152998    0.06962962    0.11320000
opls_144-235    H    0.09591004    0.19101006    0.86811942    0.10130000
opls_146-236    H    0.07867963    0.25697002    0.42567935    0.11450000
opls_146-237    H    0.08782993    0.61398994    0.06810056    0.11450000
opls_146-238    H    0.14509996    0.66068008    0.15150939    0.11720000
opls_146-239    H    0.65587979    0.62454004    0.78933018    0.12090000
opls_146-240    H    0.59765005    0.57778994    0.69323959    0.11320000
opls_146-241    H    0.82838005    0.70071006    0.62196895    0.11760000
opls_144-242    H    0.10772018    0.70202998    0.33498024    0.10350000
opls_146-243    H    0.09556982    0.74604004    0.87639961    0.11530000
opls_146-244    H    0.08782003    0.88592998    0.56807920    0.11450000
opls_146-245    H    0.14507988    0.83924004    0.65151013    0.11720000
opls_146-246    H    0.65586009    0.87538008    0.28936921    0.12270000
opls_146-247    H    0.59762017    0.92211992    0.19329925    0.11450000
opls_146-248    H    0.82838016    0.79921006    0.12198000    0.11760000
opls_144-249    H    0.10770979    0.79788008    0.83497950    0.10130000
opls_146-250    H    0.09558021    0.75388008    0.37640035    0.11530000
opls_146-251    H    0.09273980    0.39641992    0.08413064    0.11810000
opls_146-252    H    0.14379981    0.34948994    0.18161034    0.12070000
opls_146-253    H    0.67267003    0.36321992    0.76164950    0.11760000
opls_146-254    H    0.60909972    0.40990000    0.68028973    0.11530000
opls_146-255    H    0.84555001    0.28838994    0.56962005    0.11320000
opls_144-256    H    0.09589976    0.30890000    0.36813047    0.10000000
opls_146-257    H    0.07867954    0.24295010    0.92566977    0.11590000
opls_146-258    H    0.91195961    0.88592998    0.98295939    0.11320000
opls_146-259    H    0.85468957    0.83924004    0.89954909    0.11900000
opls_146-260    H    0.34390975    0.87538008    0.26172978    0.12090000
opls_146-261    H    0.40214019    0.92212998    0.35782037    0.11900000
opls_146-262    H    0.17141987    0.79920000    0.42908953    0.11750000
opls_144-263    H    0.89207015    0.79788994    0.71609003    0.10130000
opls_146-264    H    0.90421981    0.75388008    0.17466918    0.11450000
opls_146-265    H    0.90703017    0.39641992    0.46698014    0.11810000
opls_146-266    H    0.85596995    0.34948994    0.36947981    0.12030000
opls_146-267    H    0.32710970    0.36321006    0.78939941    0.11760000
opls_146-268    H    0.39069991    0.40988994    0.87074003    0.11320000
opls_146-269    H    0.15422984    0.28838994    0.98144064    0.11320000
opls_144-270    H    0.90388998    0.30891006    0.18294937    0.10000000
opls_146-271    H    0.92111000    0.24295010    0.62538945    0.11320000
opls_146-272    H    0.41197989    0.11398994    0.98298001    0.11320000
opls_146-273    H    0.35471945    0.16068008    0.89955940    0.11720000
opls_146-274    H    0.84393013    0.12454004    0.26169001    0.12270000
opls_146-275    H    0.90217006    0.07780000    0.35775997    0.11320000
opls_146-276    H    0.67141987    0.20071006    0.42908953    0.12060000
opls_144-277    H    0.39208954    0.20204004    0.71609003    0.10350000
opls_146-278    H    0.40421012    0.24604004    0.17466918    0.11450000
opls_146-279    H    0.40704975    0.60350000    0.46693005    0.11810000
opls_146-280    H    0.35598974    0.65042998    0.36945035    0.12030000
opls_146-281    H    0.82711950    0.63670000    0.78940972    0.11760000
opls_146-282    H    0.89069951    0.59001992    0.87076949    0.11530000
opls_146-283    H    0.65424993    0.71152998    0.98144064    0.11320000
opls_144-284    H    0.40390018    0.69101006    0.18293022    0.10350000
opls_146-285    H    0.42111979    0.75697002    0.62539976    0.11450000
opls_146-286    H    0.58782993    0.11398994    0.56809983    0.11450000
opls_146-287    H    0.64509997    0.16068008    0.65151013    0.11720000
opls_146-288    H    0.15587978    0.12454004    0.28932944    0.12090000
opls_146-289    H    0.09765006    0.07778994    0.19324032    0.11320000
opls_146-290    H    0.32838006    0.20071006    0.12196969    0.11760000
opls_144-291    H    0.60771948    0.20202998    0.83497950    0.10350000
opls_146-292    H    0.59556983    0.24604004    0.37640035    0.11530000
opls_146-293    H    0.59276986    0.60350000    0.08408939    0.11810000
opls_146-294    H    0.64382028    0.65042998    0.18157941    0.12030000
opls_146-295    H    0.17268963    0.63671006    0.76167012    0.11800000
opls_146-296    H    0.10910001    0.59002998    0.68031919    0.11590000
opls_146-297    H    0.34555981    0.71152998    0.56963036    0.11320000
opls_144-298    H    0.59591005    0.69101006    0.36812016    0.10130000
opls_146-299    H    0.57867964    0.75697002    0.92568008    0.11450000
opls_146-300    H    0.59273979    0.89641992    0.58412990    0.11810000
opls_146-301    H    0.64379981    0.84948994    0.68160961    0.12070000
opls_146-302    H    0.17267004    0.86321992    0.26165023    0.11760000
opls_146-303    H    0.10909973    0.90990000    0.18029046    0.11530000
opls_146-304    H    0.34555000    0.78838994    0.06961931    0.11320000
opls_144-305    H    0.59589975    0.80890000    0.86812973    0.10000000
opls_146-306    H    0.57867953    0.74295010    0.42566904    0.11590000
opls_146-307    H    0.58782003    0.38592998    0.06807994    0.11450000
opls_146-308    H    0.64507988    0.33924004    0.15150939    0.11720000
opls_146-309    H    0.15586010    0.37538008    0.78936995    0.12270000
opls_146-310    H    0.09761948    0.42211992    0.69329998    0.11450000
opls_146-311    H    0.32838015    0.29921006    0.62197926    0.11760000
opls_144-312    H    0.60770980    0.29788008    0.33498024    0.10130000
opls_146-313    H    0.59557951    0.25388008    0.87639961    0.11530000
opls_146-314    H    0.40702947    0.89641992    0.96697940    0.11810000
opls_146-315    H    0.35596994    0.84948994    0.86947907    0.12030000
opls_146-316    H    0.82710971    0.86321006    0.28940015    0.11760000
opls_146-317    H    0.89069990    0.90988994    0.37073930    0.11320000
opls_146-318    H    0.65422984    0.78838994    0.48143991    0.11320000
opls_144-319    H    0.40388999    0.80891006    0.68295011    0.10000000
opls_146-320    H    0.42111000    0.74295010    0.12539018    0.11590000
opls_146-321    H    0.41195961    0.38592998    0.48296013    0.11320000
opls_146-322    H    0.35468957    0.33924004    0.39954983    0.11900000
opls_146-323    H    0.84390974    0.37538008    0.76172904    0.12090000
opls_146-324    H    0.90213949    0.42212998    0.85781963    0.11900000
opls_146-325    H    0.67141986    0.29920000    0.92908880    0.11750000
opls_144-326    H    0.39207014    0.29788994    0.21608929    0.10130000
opls_146-327    H    0.40421982    0.25388008    0.67466992    0.11450000
