#======================================================================
# Crystal Data Generated By AuToFF
#----------------------------------------------------------------------

data_AuToFF_phase_1

_cell_length_a                         31.9887
_cell_length_b                         32.4326
_cell_length_c                         3.5679
_cell_angle_alpha                      93.63
_cell_angle_beta                       90.56
_cell_angle_gamma                      119.93
_symmetry_space_group_name_H-M_alt     'P 1'
_symmetry_space_group_IT_number        1

loop_
_space_group_symop_operation_xyz
   'x, y, z'

loop_
   _atom_site_label
   _atom_site_type_symbol
   _atom_site_fract_x
   _atom_site_fract_y
   _atom_site_fract_z
   _atom_site_charge
opls_916-0    C    0.72275990    0.46735986    0.37216168    0.19250000
opls_145-1    C    0.71494008    0.50451017    0.27769999    -0.16570000
opls_145-2    C    0.75401996    0.55023994    0.24329993    -0.16570000
opls_916-3    C    0.80161006    0.55979992    0.30624909    0.19250000
opls_145-4    C    0.80931014    0.52231987    0.38727971    -0.16740000
opls_145-5    C    0.77028019    0.47656007    0.41973976    -0.16770000
opls_247-6    C    0.84463011    0.64869996    0.37423946    0.58890000
opls_142-7    C    0.63714008    0.41014009    0.53680117    0.04940000
opls_916-8    C    0.90477033    0.82967018    0.57528931    0.19820000
opls_145-9    C    0.94243018    0.82033002    0.64268081    -0.16390000
opls_145-10    C    0.93579005    0.77472021    0.55925189    -0.16650000
opls_916-11    C    0.89117015    0.73737018    0.41154110    0.18980000
opls_145-12    C    0.85374005    0.74682019    0.33408966    -0.16450000
opls_145-13    C    0.86044022    0.79252003    0.41474071    -0.16670000
opls_280-14    C    0.51839996    0.27093001    0.71831033    0.35480000
opls_145-15    C    0.56619007    0.27574997    0.64235186    -0.11340000
opls_280-16    C    0.60867006    0.32468993    0.65080075    0.35010000
opls_145-17    C    0.60184993    0.36661990    0.62369120    -0.11270000
opls_280-18    C    0.55364012    0.36005998    0.70654093    0.35190000
opls_145-19    C    0.51050998    0.31158988    0.67092063    -0.11430000
opls_142-20    C    0.46523992    0.30296988    0.59425082    0.04940000
opls_142-21    C    0.57257992    0.23785004    0.57107190    0.04950000
opls_916-22    C    0.40588010    0.32933998    0.42013057    0.19250000
opls_145-23    C    0.39606019    0.36672015    0.48178920    -0.16600000
opls_145-24    C    0.34943025    0.35888014    0.41693096    -0.16800000
opls_916-25    C    0.31168019    0.31349013    0.28919104    0.19200000
opls_145-26    C    0.32178003    0.27633994    0.21403950    -0.16570000
opls_145-27    C    0.36838983    0.28411985    0.28028948    -0.16570000
opls_247-28    C    0.22181000    0.26627996    0.27554067    0.58890000
opls_916-29    C    0.03884014    0.14339008    0.29226132    0.19070000
opls_145-30    C    0.07696995    0.13666989    0.17232082    -0.16570000
opls_145-31    C    0.12302009    0.17588992    0.13972019    -0.16560000
opls_916-32    C    0.13191995    0.22252012    0.22792885    0.19240000
opls_145-33    C    0.09356998    0.22920992    0.33512995    -0.16800000
opls_145-34    C    0.04754006    0.19004995    0.36758156    -0.16800000
opls_916-35    C    0.53981010    0.14880005    0.56633152    0.19760000
opls_145-36    C    0.58293995    0.15375010    0.71990171    -0.16570000
opls_145-37    C    0.58814982    0.11375993    0.74795034    -0.16700000
opls_916-38    C    0.55039003    0.06800987    0.62380928    0.19240000
opls_145-39    C    0.50674994    0.06285984    0.48566922    -0.16770000
opls_145-40    C    0.50162000    0.10286008    0.45485115    -0.16520000
opls_247-41    C    0.59569979    0.02410992    0.59046077    0.59050000
opls_916-42    C    0.71848007    0.96435018    0.51014992    0.19760000
opls_145-43    C    0.67175020    0.92735000    0.39927123    -0.16460000
opls_145-44    C    0.63194006    0.93374007    0.44375935    -0.16770000
opls_916-45    C    0.63811003    0.97744009    0.59547949    0.19240000
opls_145-46    C    0.68463008    0.01404994    0.71833002    -0.16700000
opls_145-47    C    0.72442001    0.00761002    0.67643983    -0.16570000
opls_142-48    C    0.98057002    0.05676984    0.39920938    0.04950000
opls_280-49    C    0.84006034    0.94063018    0.64121034    0.34260000
opls_145-50    C    0.88143016    0.93201016    0.60321142    -0.14550000
opls_280-51    C    0.92818005    0.97168010    0.48516032    0.20540000
opls_145-52    C    0.93647989    0.02113987    0.48291946    -0.10400000
opls_280-53    C    0.89541000    0.02870977    0.57400160    0.34040000
opls_145-54    C    0.84575997    0.98752993    0.56281139    -0.20430000
opls_142-55    C    0.80822032    0.99462026    0.49742175    0.04940000
opls_142-56    C    0.87476993    0.88837988    0.66510060    0.04940000
opls_238-57    N    0.68345989    0.41984994    0.40750082    -0.33910000
opls_238-58    N    0.84264003    0.60631018    0.26670940    -0.42550000
opls_238-59    N    0.91289006    0.87713002    0.66264044    -0.33920000
opls_238-60    N    0.88567006    0.69102993    0.32023123    -0.42680000
opls_238-61    N    0.45436005    0.33874016    0.48571139    -0.33920000
opls_238-62    N    0.26433014    0.30690003    0.21479020    -0.42570000
opls_238-63    N    0.99081990    0.10402981    0.32596129    -0.33860000
opls_238-64    N    0.17861013    0.26359997    0.18640136    -0.42570000
opls_238-65    N    0.53350989    0.18930991    0.52651068    -0.33840000
opls_238-66    N    0.55452988    0.02617008    0.65646052    -0.42570000
opls_238-67    N    0.75878034    0.95672016    0.45848938    -0.33860000
opls_238-68    N    0.59643007    0.98287009    0.64262177    -0.42570000
opls_146-69    H    0.67894005    0.49816007    0.21771990    0.11990000
opls_146-70    H    0.74692010    0.57761004    0.15671075    0.12320000
opls_146-71    H    0.84571004    0.52872999    0.42875097    0.11970000
opls_146-72    H    0.77705999    0.44824985    0.48677981    0.11910000
opls_241-73    H    0.87377012    0.60752011    0.16562075    0.27100000
opls_910-74    H    0.68999008    0.39215017    0.32993128    0.27170000
opls_144-75    H    0.62947982    0.43909984    0.55376081    0.12470000
opls_146-76    H    0.97705003    0.84845998    0.76146013    0.11970000
opls_146-77    H    0.96531023    0.76829002    0.61410923    0.11940000
opls_146-78    H    0.81979010    0.71930018    0.20113983    0.12230000
opls_146-79    H    0.83120025    0.79868011    0.34323020    0.12030000
opls_241-80    H    0.91584025    0.68996024    0.22233094    0.27100000
opls_910-81    H    0.94726026    0.90320021    0.76821080    0.27090000
opls_144-82    H    0.43574003    0.26668005    0.59788061    0.12070000
opls_144-83    H    0.60869002    0.24433012    0.52516954    0.09630000
opls_146-84    H    0.42459988    0.40196998    0.58376070    0.11750000
opls_146-85    H    0.34258002    0.38817994    0.46885016    0.11930000
opls_146-86    H    0.29412010    0.24170016    0.09330893    0.12400000
opls_146-87    H    0.37517024    0.25515016    0.20943970    0.12030000
opls_241-88    H    0.26260023    0.33605010    0.12375024    0.27110000
opls_910-89    H    0.48193008    0.37319997    0.44616046    0.27510000
opls_146-90    H    0.07131010    0.10156996    0.09032019    0.12470000
opls_146-91    H    0.15117019    0.16972009    0.03414139    0.12310000
opls_146-92    H    0.09950007    0.26490010    0.39670985    0.11970000
opls_146-93    H    0.01856989    0.19607003    0.45494956    0.11790000
opls_241-94    H    0.17925989    0.29399994    0.09732953    0.27090000
opls_910-95    H    0.96279995    0.11107012    0.28346942    0.27420000
opls_146-96    H    0.61242999    0.18811993    0.82648987    0.11860000
opls_146-97    H    0.62118982    0.11854987    0.87664057    0.12310000
opls_146-98    H    0.47692009    0.02778006    0.39577921    0.11750000
opls_146-99    H    0.46784003    0.09801986    0.34069132    0.11750000
opls_241-100    H    0.52341996    0.99498996    0.71958962    0.27090000
opls_910-101    H    0.49998989    0.18254983    0.41961042    0.27090000
opls_146-102    H    0.66615012    0.89352999    0.27541134    0.11930000
opls_146-103    H    0.59624012    0.90480998    0.35435012    0.11970000
opls_146-104    H    0.69013979    0.04716993    0.85653193    0.11880000
opls_146-105    H    0.75939997    0.03620978    0.78244037    0.11860000
opls_241-106    H    0.56431025    0.95270996    0.70575087    0.27090000
opls_910-107    H    0.75127018    0.92297027    0.34921050    0.27090000
opls_144-108    H    0.83926026    0.86053005    0.73200007    0.10140000
opls_144-109    H    0.00946003    0.04879981    0.37421978    0.11610000
opls_144-110    H    0.81580007    0.03039009    0.45352970    0.10800000
opls_248-111    O    0.81075019    0.64880020    0.52785182    -0.47540000
opls_281-112    O    0.64896999    0.33038987    0.70580991    -0.38770000
opls_281-113    O    0.55012979    0.39423983    0.82628181    -0.38880000
opls_281-114    O    0.48607004    0.23430995    0.83221150    -0.38860000
opls_248-115    O    0.22238996    0.23336989    0.41874164    -0.47540000
opls_248-116    O    0.63097002    0.05825006    0.47465052    -0.48840000
opls_281-117    O    0.95929012    0.96338004    0.37161060    -0.38840000
opls_281-118    O    0.90235975    0.06822976    0.67977158    -0.38770000
opls_281-119    O    0.80207003    0.90976013    0.75458011    -0.38640000
