#======================================================================
# Crystal Data Generated By AuToFF
#----------------------------------------------------------------------

data_AuToFF_phase_1

_cell_length_a                         29.6894
_cell_length_b                         29.6894
_cell_length_c                         3.7043
_cell_angle_alpha                      90.00
_cell_angle_beta                       90.00
_cell_angle_gamma                      120.00
_symmetry_space_group_name_H-M_alt     'P 1'
_symmetry_space_group_IT_number        1

loop_
_space_group_symop_operation_xyz
   'x, y, z'

loop_
   _atom_site_label
   _atom_site_type_symbol
   _atom_site_fract_x
   _atom_site_fract_y
   _atom_site_fract_z
   _atom_site_charge
opls_520-0    N    0.39109997    0.57952020    0.14232109    -0.29330000
opls_520-1    N    0.42048012    0.81158007    0.14232109    -0.29330000
opls_520-2    N    0.18842010    0.60890013    0.14232109    -0.29330000
opls_520-3    N    0.60890022    0.42048019    0.14232109    -0.29330000
opls_520-4    N    0.57951988    0.18841993    0.14232109    -0.29330000
opls_520-5    N    0.81158009    0.39110026    0.14232109    -0.29330000
opls_523-6    C    0.31725010    0.61373993    0.15679076    -0.17450000
opls_521-7    C    0.40897014    0.63136999    0.11666982    0.18550000
opls_521-8    C    0.42151030    0.55812027    0.08771968    0.18350000
opls_700-9    C    0.47428005    0.58966030    0.98868882    -0.00650000
opls_523-10    C    0.50302994    0.56487010    0.90549092    -0.17720000
opls_700-11    C    0.48275994    0.51156999    0.97631131    0.06980000
opls_523-12    C    0.43065007    0.48168990    0.08686122    -0.12060000
opls_522-13    C    0.39998995    0.50458020    0.13110979    -0.17860000
opls_700-14    C    0.37080007    0.65029012    0.15145912    0.04010000
opls_700-15    C    0.49568989    0.64459001    0.98003941    0.03590000
opls_522-16    C    0.46212006    0.66455013    0.04368977    -0.22630000
opls_700-17    C    0.55256012    0.68276007    0.92954134    0.06730000
opls_145-18    C    0.59117010    0.67499009    0.09146127    -0.13220000
opls_145-19    C    0.62133992    0.76763016    0.72057879    -0.08630000
opls_145-20    C    0.65895993    0.75819012    0.86989985    -0.08690000
opls_145-21    C    0.64389027    0.71164023    0.05162109    -0.08810000
opls_145-22    C    0.56868007    0.73003025    0.74492887    -0.13300000
opls_523-23    C    0.38625996    0.70351010    0.15679076    -0.17450000
opls_521-24    C    0.36862999    0.77760030    0.11666982    0.18550000
opls_521-25    C    0.44188021    0.86339019    0.08771968    0.18350000
opls_700-26    C    0.41034008    0.88462016    0.98868882    -0.00650000
opls_523-27    C    0.43512995    0.93816023    0.90549092    -0.17720000
opls_700-28    C    0.48843014    0.97119024    0.97631131    0.06980000
opls_523-29    C    0.51831029    0.94896034    0.08686122    -0.12060000
opls_522-30    C    0.49542009    0.89541016    0.13110979    -0.17860000
opls_700-31    C    0.34971021    0.72051010    0.15145912    0.04010000
opls_700-32    C    0.35541020    0.85110010    0.98003941    0.03590000
opls_522-33    C    0.33545001    0.79757014    0.04368977    -0.22630000
opls_700-34    C    0.31724021    0.86980010    0.92954134    0.06730000
opls_145-35    C    0.32500985    0.91618002    0.09146127    -0.13220000
opls_145-36    C    0.23237019    0.85371019    0.72057879    -0.08480000
opls_145-37    C    0.24181006    0.90077035    0.86989985    -0.08690000
opls_145-38    C    0.28835992    0.93225009    0.05162109    -0.08810000
opls_145-39    C    0.26997009    0.83865016    0.74492887    -0.13300000
opls_523-40    C    0.29648994    0.68274996    0.15679076    -0.17450000
opls_521-41    C    0.22240007    0.59103010    0.11666982    0.18550000
opls_521-42    C    0.13661002    0.57848993    0.08771968    0.18350000
opls_700-43    C    0.11538006    0.52571993    0.98868882    -0.00650000
opls_523-44    C    0.06183997    0.49697006    0.90549092    -0.17720000
opls_700-45    C    0.02881011    0.51724016    0.97631131    0.06980000
opls_523-46    C    0.05104017    0.56935015    0.08686122    -0.12060000
opls_522-47    C    0.10459016    0.60001003    0.13110979    -0.17860000
opls_700-48    C    0.27949025    0.62920017    0.15145912    0.04010000
opls_700-49    C    0.14890011    0.50431028    0.98003941    0.03590000
opls_522-50    C    0.20243013    0.53788012    0.04368977    -0.22630000
opls_700-51    C    0.13020020    0.44744022    0.92954134    0.06730000
opls_145-52    C    0.08382005    0.40882989    0.09146127    -0.13220000
opls_145-53    C    0.14629008    0.37866005    0.72057879    -0.08480000
opls_145-54    C    0.09922987    0.34103992    0.86989985    -0.08690000
opls_145-55    C    0.06775001    0.35611006    0.05162109    -0.08810000
opls_145-56    C    0.16135003    0.43131998    0.74492887    -0.13300000
opls_523-57    C    0.68274990    0.38626007    0.15679076    -0.17450000
opls_521-58    C    0.59102986    0.36863001    0.11666982    0.18550000
opls_521-59    C    0.57848989    0.44188012    0.08771968    0.18350000
opls_700-60    C    0.52572014    0.41034009    0.98868882    -0.00650000
opls_523-61    C    0.49697006    0.43512990    0.90549092    -0.17720000
opls_700-62    C    0.51724006    0.48843001    0.97631131    0.06980000
opls_523-63    C    0.56934993    0.51831010    0.08686122    -0.12060000
opls_522-64    C    0.60001024    0.49542019    0.13110979    -0.17850000
opls_700-65    C    0.62919993    0.34970988    0.15145912    0.04010000
opls_700-66    C    0.50431011    0.35540999    0.98003941    0.03590000
opls_522-67    C    0.53787994    0.33544987    0.04368977    -0.22620000
opls_700-68    C    0.44743988    0.31723993    0.92954134    0.06730000
opls_145-69    C    0.40882990    0.32500991    0.09146127    -0.13220000
opls_145-70    C    0.37866028    0.23237023    0.72057879    -0.08480000
opls_145-71    C    0.34104007    0.24180988    0.86989985    -0.08690000
opls_145-72    C    0.35610992    0.28836016    0.05162109    -0.08810000
opls_145-73    C    0.43132012    0.26997013    0.74492887    -0.13300000
opls_523-74    C    0.61374004    0.29648990    0.15679076    -0.17450000
opls_521-75    C    0.63137021    0.22240009    0.11666982    0.18550000
opls_521-76    C    0.55811998    0.13661020    0.08771968    0.18350000
opls_700-77    C    0.58965992    0.11537984    0.98868882    -0.00650000
opls_523-78    C    0.56487024    0.06184016    0.90549092    -0.17720000
opls_700-79    C    0.51157006    0.02881015    0.97631131    0.06980000
opls_523-80    C    0.48168990    0.05104005    0.08686122    -0.12060000
opls_522-81    C    0.50457991    0.10458984    0.13110979    -0.17860000
opls_700-82    C    0.65028979    0.27948990    0.15145912    0.04010000
opls_700-83    C    0.64458980    0.14889990    0.98003941    0.03590000
opls_522-84    C    0.66454999    0.20242986    0.04368977    -0.22630000
opls_700-85    C    0.68275979    0.13019990    0.92954134    0.06740000
opls_145-86    C    0.67499015    0.08381998    0.09146127    -0.13210000
opls_145-87    C    0.76763000    0.14629020    0.72057879    -0.08630000
opls_145-88    C    0.75819014    0.09923004    0.86989985    -0.08690000
opls_145-89    C    0.71164008    0.06774991    0.05162109    -0.08810000
opls_145-90    C    0.73002991    0.16134984    0.74492887    -0.13300000
opls_523-91    C    0.70351006    0.31725004    0.15679076    -0.17450000
opls_521-92    C    0.77759993    0.40896990    0.11666982    0.18550000
opls_521-93    C    0.86338998    0.42151007    0.08771968    0.18350000
opls_700-94    C    0.88461994    0.47428007    0.98868882    -0.00650000
opls_523-95    C    0.93816003    0.50302994    0.90549092    -0.17710000
opls_700-96    C    0.97119008    0.48276023    0.97631131    0.06980000
opls_523-97    C    0.94896002    0.43065024    0.08686122    -0.12060000
opls_522-98    C    0.89540984    0.39998997    0.13110979    -0.17860000
opls_700-99    C    0.72050995    0.37080022    0.15145912    0.04010000
opls_700-100    C    0.85110009    0.49569011    0.98003941    0.03590000
opls_522-101    C    0.79757007    0.46212027    0.04368977    -0.22630000
opls_700-102    C    0.86979999    0.55256017    0.92954134    0.06730000
opls_145-103    C    0.91617995    0.59117011    0.09146127    -0.13210000
opls_145-104    C    0.85370992    0.62133995    0.72057879    -0.08480000
opls_145-105    C    0.90077013    0.65896008    0.86989985    -0.08690000
opls_145-106    C    0.93224999    0.64388994    0.05162109    -0.08810000
opls_145-107    C    0.83864997    0.56868002    0.74492887    -0.13300000
opls_526-108    H    0.30559004    0.57314024    0.15906919    0.09350000
opls_526-109    H    0.54135012    0.58648004    0.78902087    0.10330000
opls_526-110    H    0.41373013    0.44083002    0.15023891    0.12010000
opls_525-111    H    0.35979011    0.48082026    0.21354102    0.11430000
opls_525-112    H    0.47822031    0.70599029    0.03959992    0.09580000
opls_146-113    H    0.58083994    0.64152993    0.26011932    0.11840000
opls_146-114    H    0.63301990    0.80367007    0.57847097    0.11900000
opls_146-115    H    0.69976009    0.78701000    0.84600869    0.11910000
opls_146-116    H    0.67301013    0.70477995    0.17428124    0.11610000
opls_146-117    H    0.54073026    0.73790019    0.61448047    0.11860000
opls_526-118    H    0.42686019    0.73245016    0.15906919    0.09350000
opls_526-119    H    0.41351998    0.95487008    0.78902087    0.10940000
opls_526-120    H    0.55917007    0.97290035    0.15023891    0.12010000
opls_525-121    H    0.51918022    0.87897021    0.21354102    0.11430000
opls_525-122    H    0.29401007    0.77222999    0.03959992    0.09580000
opls_146-123    H    0.35847001    0.93931028    0.26011932    0.11840000
opls_146-124    H    0.19633014    0.82935014    0.57847097    0.11900000
opls_146-125    H    0.21299019    0.91275008    0.84600869    0.11910000
opls_146-126    H    0.29522003    0.96823011    0.17428124    0.11600000
opls_146-127    H    0.26209995    0.80282999    0.61448047    0.11860000
opls_526-128    H    0.26754997    0.69440999    0.15906919    0.09350000
opls_526-129    H    0.04513010    0.45865026    0.78902087    0.10940000
opls_526-130    H    0.02710000    0.58627002    0.15023891    0.12010000
opls_525-131    H    0.12103006    0.64021030    0.21354102    0.11430000
opls_525-132    H    0.22777015    0.52178010    0.03959992    0.09580000
opls_146-133    H    0.06069025    0.41916017    0.26011932    0.11840000
opls_146-134    H    0.17065015    0.36698018    0.57847097    0.11900000
opls_146-135    H    0.08725005    0.30023993    0.84600869    0.11910000
opls_146-136    H    0.03176984    0.32698993    0.17428124    0.11640000
opls_146-137    H    0.19716998    0.45927021    0.61448047    0.11860000
opls_526-138    H    0.69441016    0.42686015    0.15906919    0.09350000
opls_526-139    H    0.45864988    0.41351996    0.78902087    0.10330000
opls_526-140    H    0.58626987    0.55916998    0.15023891    0.12010000
opls_525-141    H    0.64021008    0.51918013    0.21354102    0.11430000
opls_525-142    H    0.52177988    0.29401010    0.03959992    0.09580000
opls_146-143    H    0.41916006    0.35847007    0.26011932    0.11840000
opls_146-144    H    0.36698010    0.19632993    0.57847097    0.11900000
opls_146-145    H    0.30023991    0.21299000    0.84600869    0.11910000
opls_146-146    H    0.32698987    0.29522005    0.17428124    0.11600000
opls_146-147    H    0.45926993    0.26210020    0.61448047    0.11860000
opls_526-148    H    0.57314001    0.26755023    0.15906919    0.09360000
opls_526-149    H    0.58648002    0.04512992    0.78902087    0.10330000
opls_526-150    H    0.44083013    0.02710004    0.15023891    0.12010000
opls_525-151    H    0.48081998    0.12103017    0.21354102    0.11430000
opls_525-152    H    0.70598993    0.22777001    0.03959992    0.09580000
opls_146-153    H    0.64153019    0.06069010    0.26011932    0.11840000
opls_146-154    H    0.80366986    0.17064986    0.57847097    0.11900000
opls_146-155    H    0.78700981    0.08724992    0.84600869    0.11910000
opls_146-156    H    0.70477997    0.03176989    0.17428124    0.11600000
opls_146-157    H    0.73790005    0.19717001    0.61448047    0.11860000
opls_526-158    H    0.73245003    0.30559001    0.15906919    0.09350000
opls_526-159    H    0.95487010    0.54135013    0.78902087    0.10330000
opls_526-160    H    0.97290000    0.41372998    0.15023891    0.12010000
opls_525-161    H    0.87897013    0.35979009    0.21354102    0.11430000
opls_525-162    H    0.77222985    0.47821990    0.03959992    0.09580000
opls_146-163    H    0.93930995    0.58084021    0.26011932    0.11840000
opls_146-164    H    0.82935004    0.63302021    0.57847097    0.11900000
opls_146-165    H    0.91274995    0.69976007    0.84600869    0.11910000
opls_146-166    H    0.96823016    0.67301007    0.17428124    0.11640000
opls_146-167    H    0.80283021    0.54073018    0.61448047    0.11860000
