#======================================================================
# Crystal Data Generated By AuToFF
#----------------------------------------------------------------------

data_AuToFF_phase_1

_cell_length_a                         24.3000
_cell_length_b                         44.7800
_cell_length_c                         5.3600
_cell_angle_alpha                      134.44
_cell_angle_beta                       111.47
_cell_angle_gamma                      72.15
_symmetry_space_group_name_H-M_alt     'P 1'
_symmetry_space_group_IT_number        1

loop_
_space_group_symop_operation_xyz
   'x, y, z'

loop_
   _atom_site_label
   _atom_site_type_symbol
   _atom_site_fract_x
   _atom_site_fract_y
   _atom_site_fract_z
   _atom_site_charge
opls_633-0    S    0.42775019    0.03843015    0.41014102    0.08440000
opls_633-1    S    0.92774986    0.53842994    0.41007937    0.08440000
opls_633-2    S    0.56322013    0.03070981    0.53796917    0.08440000
opls_633-3    S    0.06322002    0.53070005    0.53789948    0.08440000
opls_633-4    S    0.57225021    0.96156994    0.58992063    0.08440000
opls_633-5    S    0.07225029    0.46157004    0.58985094    0.08440000
opls_633-6    S    0.43677995    0.96929994    0.46208980    0.08450000
opls_633-7    S    0.93677993    0.46929008    0.46203083    0.08440000
opls_716-8    C    0.46193021    0.07477008    0.47733054    -0.05610000
opls_700-9    C    0.42169020    0.10654982    0.46798935    0.07320000
opls_145-10    C    0.43052041    0.14949991    0.74641028    -0.11210000
opls_145-11    C    0.39866005    0.17792993    0.70286990    -0.16110000
opls_145-12    C    0.35657988    0.16418000    0.38561002    0.20050000
opls_145-13    C    0.34375019    0.12173990    0.12126922    -0.16030000
opls_145-14    C    0.37599011    0.09330993    0.16397063    -0.11220000
opls_700-15    C    0.27244984    0.21995996    0.03763010    -0.03930000
opls_145-16    C    0.23010035    0.20981988    0.73094975    -0.26520000
opls_181-17    C    0.14431993    0.18870995    0.09919883    -0.18840000
opls_142-18    C    0.29545992    0.18634003    0.05255991    0.07380000
opls_166-19    C    0.29287016    0.26064004    0.31201971    0.24320000
opls_716-20    C    0.96193010    0.57476001    0.47726889    -0.05610000
opls_700-21    C    0.92169015    0.60654009    0.46794111    0.07920000
opls_145-22    C    0.93052005    0.64949982    0.74635935    -0.11210000
opls_145-23    C    0.89867027    0.67792002    0.70284042    -0.16110000
opls_145-24    C    0.85657990    0.66418004    0.38556981    0.20050000
opls_145-25    C    0.84374980    0.62173995    0.12122902    -0.16030000
opls_145-26    C    0.87599003    0.59331008    0.16391971    -0.11220000
opls_700-27    C    0.77244980    0.71995995    0.03761938    -0.03930000
opls_145-28    C    0.73009990    0.70981986    0.73093902    -0.26600000
opls_181-29    C    0.64432987    0.68870983    0.09919883    -0.18850000
opls_142-30    C    0.79546002    0.68634010    0.05254115    0.07170000
opls_166-31    C    0.79286982    0.76063993    0.31201971    0.24310000
opls_716-32    C    0.52156003    0.07094013    0.52522120    -0.05640000
opls_700-33    C    0.55582003    0.09794992    0.57417062    0.08120000
opls_145-34    C    0.53368997    0.11239999    0.39001927    -0.11540000
opls_145-35    C    0.56403999    0.14047989    0.46396876    -0.15170000
opls_145-36    C    0.61928009    0.15243007    0.70136084    0.20870000
opls_145-37    C    0.64369039    0.13636995    0.87286071    -0.16040000
opls_145-38    C    0.61225009    0.10928990    0.80798973    -0.12390000
opls_700-39    C    0.72494028    0.22218001    0.96345010    -0.03720000
opls_145-40    C    0.78500999    0.22992007    0.12557126    -0.24600000
opls_181-41    C    0.90944991    0.24262003    0.42629041    -0.18850000
opls_142-42    C    0.70166025    0.19253998    0.93389068    0.07400000
opls_166-43    C    0.68900018    0.24253987    0.83638050    0.24330000
opls_716-44    C    0.02156979    0.57093006    0.52515955    -0.05640000
opls_700-45    C    0.05581998    0.59794994    0.57410897    0.08160000
opls_145-46    C    0.03369012    0.61240011    0.38997102    -0.11610000
opls_145-47    C    0.06404008    0.64046992    0.46392051    -0.15170000
opls_145-48    C    0.11928995    0.65241989    0.70130991    0.20870000
opls_145-49    C    0.14369003    0.63636986    0.87280978    -0.16030000
opls_145-50    C    0.11226024    0.60927996    0.80793880    -0.12370000
opls_700-51    C    0.22494028    0.72217987    0.96342866    -0.03720000
opls_145-52    C    0.28500992    0.72991987    0.12557930    -0.24600000
opls_181-53    C    0.40944982    0.74262999    0.42633866    -0.18850000
opls_142-54    C    0.20166014    0.69253995    0.93385851    0.07400000
opls_166-55    C    0.18900004    0.74253996    0.83635906    0.24330000
opls_716-56    C    0.53807025    0.92524011    0.52273111    -0.05610000
opls_700-57    C    0.57830988    0.89345992    0.53206962    0.07920000
opls_145-58    C    0.56948002    0.85050006    0.25364065    -0.11210000
opls_145-59    C    0.60133018    0.82207999    0.29717030    -0.16110000
opls_145-60    C    0.64342003    0.83582007    0.61443019    0.20050000
opls_145-61    C    0.65625026    0.87825994    0.87877098    -0.16030000
opls_145-62    C    0.62400990    0.90669004    0.83608029    -0.11220000
opls_700-63    C    0.72755027    0.78003993    0.96238062    -0.03930000
opls_145-64    C    0.76990016    0.79018002    0.26906098    -0.26600000
opls_181-65    C    0.85567998    0.81128984    0.90079849    -0.18850000
opls_142-66    C    0.70454005    0.81365979    0.94745885    0.07170000
opls_166-67    C    0.70713025    0.73935996    0.68798029    0.24310000
opls_716-68    C    0.03807013    0.42523004    0.52266946    -0.05610000
opls_700-69    C    0.07830990    0.39344993    0.53199992    0.07320000
opls_145-70    C    0.06948007    0.35049998    0.25358972    -0.11210000
opls_145-71    C    0.10133003    0.32207005    0.29711938    -0.16110000
opls_145-72    C    0.14342002    0.33580990    0.61437926    0.20040000
opls_145-73    C    0.15625012    0.37825000    0.87872006    -0.16040000
opls_145-74    C    0.12400999    0.40668983    0.83601864    -0.11220000
opls_700-75    C    0.22755026    0.28003979    0.96235918    -0.03930000
opls_145-76    C    0.26990016    0.29017988    0.26903953    -0.26590000
opls_181-77    C    0.35568004    0.31129004    0.90079045    -0.18850000
opls_142-78    C    0.20454004    0.31365996    0.94742936    0.07380000
opls_166-79    C    0.20713021    0.23935994    0.68796957    0.24270000
opls_716-80    C    0.47843014    0.92907006    0.47484045    -0.05640000
opls_700-81    C    0.44417995    0.90205017    0.42589103    0.08120000
opls_145-82    C    0.46630982    0.88760001    0.61002898    -0.11610000
opls_145-83    C    0.43595999    0.85952996    0.53607949    -0.15160000
opls_145-84    C    0.38071999    0.84757999    0.29869009    0.20880000
opls_145-85    C    0.35631004    0.86363002    0.12719022    -0.16030000
opls_145-86    C    0.38774992    0.89071007    0.19206120    -0.12370000
opls_700-87    C    0.27505997    0.77782004    0.03656866    -0.03710000
opls_145-88    C    0.21499001    0.77007993    0.87442874    -0.24600000
opls_181-89    C    0.09055001    0.75736992    0.57365866    -0.18850000
opls_142-90    C    0.29833969    0.80745996    0.06613881    0.07400000
opls_166-91    C    0.31099990    0.75745984    0.16364899    0.24330000
opls_716-92    C    0.97843003    0.42905999    0.47477880    -0.05640000
opls_700-93    C    0.94418004    0.40204996    0.42582938    0.08130000
opls_145-94    C    0.96630997    0.38760013    0.60998073    -0.11540000
opls_145-95    C    0.93595998    0.35951979    0.53602856    -0.15170000
opls_145-96    C    0.88072001    0.34758003    0.29864988    0.20870000
opls_145-97    C    0.85631006    0.36363007    0.12715001    -0.16030000
opls_145-98    C    0.88774997    0.39070999    0.19201027    -0.12370000
opls_700-99    C    0.77506006    0.27782011    0.03654990    -0.03720000
opls_145-100    C    0.71499005    0.27007994    0.87443946    -0.24600000
opls_181-101    C    0.59054025    0.25737998    0.57372031    -0.18850000
opls_142-102    C    0.79833979    0.30746003    0.06612004    0.07400000
opls_166-103    C    0.81099989    0.25746002    0.16361950    0.24340000
opls_716-104    C    0.49811999    0.01442991    0.48964965    -0.12200000
opls_716-105    C    0.99812004    0.51443014    0.48959068    -0.12200000
opls_716-106    C    0.50187989    0.98556998    0.51040932    -0.12200000
opls_716-107    C    0.00188007    0.48556997    0.51035035    -0.12190000
opls_750-108    N    0.32962014    0.19407984    0.34149872    -0.32220000
opls_750-109    N    0.82963011    0.69407991    0.34147995    -0.32220000
opls_750-110    N    0.64822016    0.18072987    0.75625002    -0.33370000
opls_750-111    N    0.14822018    0.68072992    0.75620981    -0.33370000
opls_750-112    N    0.67036996    0.80591998    0.65852005    -0.32220000
opls_750-113    N    0.17037008    0.30591992    0.65849056    -0.32230000
opls_750-114    N    0.35177988    0.81926996    0.24379019    -0.33370000
opls_750-115    N    0.85177991    0.31927001    0.24374998    -0.33360000
opls_179-116    O    0.33575003    0.27001981    0.61752873    -0.19530000
opls_179-117    O    0.83575984    0.77001993    0.61752873    -0.19530000
opls_179-118    O    0.62842019    0.23452995    0.67655108    -0.19420000
opls_179-119    O    0.12842011    0.73453010    0.67650015    -0.19490000
opls_179-120    O    0.66424987    0.72997998    0.38246859    -0.19320000
opls_179-121    O    0.16424006    0.22997986    0.38246859    -0.19530000
opls_179-122    O    0.37157980    0.76547014    0.32351057    -0.19490000
opls_179-123    O    0.87157985    0.26547006    0.32345964    -0.19490000
opls_146-124    H    0.46409014    0.16071997    0.98871017    0.12600000
opls_146-125    H    0.40805022    0.21063978    0.91287904    0.12240000
opls_146-126    H    0.31017988    0.10985005    0.87784893    0.12830000
opls_146-127    H    0.36731013    0.06047999    0.95021966    0.12360000
opls_146-128    H    0.21546030    0.17840983    0.52533914    0.12760000
opls_185-129    H    0.18192017    0.16522999    0.98493081    0.07690000
opls_185-130    H    0.11170983    0.18725006    0.88271117    0.07670000
opls_185-131    H    0.12184986    0.18132988    0.19600942    0.07730000
opls_144-132    H    0.28403996    0.15475994    0.81095961    0.12130000
opls_146-133    H    0.96409019    0.66071988    0.98865924    0.12600000
opls_146-134    H    0.90805025    0.71063982    0.91283884    0.11910000
opls_146-135    H    0.81017984    0.60984000    0.87780872    0.12820000
opls_146-136    H    0.86730989    0.56047999    0.95016069    0.11910000
opls_146-137    H    0.71547013    0.67841013    0.52532037    0.12730000
opls_185-138    H    0.68192013    0.66522998    0.98492008    0.07690000
opls_185-139    H    0.61172005    0.68725018    0.88271117    0.07670000
opls_185-140    H    0.62184983    0.68132987    0.19599870    0.07730000
opls_144-141    H    0.78404976    0.65475003    0.81093012    0.12760000
opls_146-142    H    0.49263008    0.10246010    0.19019028    0.12080000
opls_146-143    H    0.54497021    0.15257978    0.33057878    0.12820000
opls_146-144    H    0.68611016    0.14495997    0.06098976    0.12670000
opls_146-145    H    0.63182026    0.09800981    0.94834874    0.12340000
opls_146-146    H    0.81125004    0.21407007    0.22160990    0.12650000
opls_185-147    H    0.89500034    0.24947996    0.63710099    0.07710000
opls_185-148    H    0.95508003    0.25266997    0.53966854    0.07670000
opls_185-149    H    0.91060986    0.20843986    0.18927895    0.07690000
opls_144-150    H    0.73072027    0.18027992    0.05762855    0.12780000
opls_146-151    H    0.99263010    0.60244979    0.19012863    0.13120000
opls_146-152    H    0.04497016    0.65257005    0.33053053    0.12820000
opls_146-153    H    0.18611021    0.64495989    0.06093884    0.12660000
opls_146-154    H    0.13182025    0.59799995    0.94828977    0.12710000
opls_146-155    H    0.31124995    0.71407000    0.22162866    0.12650000
opls_185-156    H    0.39500022    0.74948003    0.63713047    0.07710000
opls_185-157    H    0.45508014    0.75268003    0.53973019    0.07670000
opls_185-158    H    0.41062009    0.70843994    0.18932987    0.07730000
opls_144-159    H    0.23073027    0.68027986    0.05759906    0.12610000
opls_146-160    H    0.53590988    0.83928000    0.01134076    0.12600000
opls_146-161    H    0.59194982    0.78936006    0.08716116    0.12170000
opls_146-162    H    0.68982010    0.89015980    0.12219932    0.12820000
opls_146-163    H    0.63269014    0.93952003    0.04985003    0.11910000
opls_146-164    H    0.78453018    0.82159012    0.47469035    0.12730000
opls_185-165    H    0.81808034    0.83476990    0.01507992    0.07690000
opls_185-166    H    0.88829017    0.81274994    0.11728883    0.07670000
opls_185-167    H    0.87815011    0.81866993    0.80400934    0.07690000
opls_144-168    H    0.71596018    0.84524986    0.18906988    0.12740000
opls_146-169    H    0.03590974    0.33927006    0.01128983    0.12670000
opls_146-170    H    0.09194984    0.28936010    0.08712096    0.12200000
opls_146-171    H    0.18982009    0.39014994    0.12214035    0.12820000
opls_146-172    H    0.13269016    0.43951004    0.04978034    0.12200000
opls_146-173    H    0.28452992    0.32158993    0.47465014    0.12730000
opls_185-174    H    0.31808034    0.33476976    0.01505847    0.07690000
opls_185-175    H    0.38829037    0.31274990    0.11728079    0.07670000
opls_185-176    H    0.37815023    0.31866987    0.80397985    0.07730000
opls_144-177    H    0.21596014    0.34523981    0.18902967    0.12130000
opls_146-178    H    0.50736986    0.89754988    0.80986869    0.12090000
opls_146-179    H    0.45502990    0.84742983    0.66946947    0.12820000
opls_146-180    H    0.31388973    0.85504023    0.93906116    0.12660000
opls_146-181    H    0.36817969    0.90200017    0.05171023    0.12350000
opls_146-182    H    0.18874985    0.78593004    0.77837938    0.12460000
opls_185-183    H    0.10499985    0.75051986    0.36286953    0.07710000
opls_185-184    H    0.04493008    0.74732008    0.46026981    0.09320000
opls_185-185    H    0.08939023    0.79156007    0.81068085    0.07730000
opls_144-186    H    0.26926980    0.81972002    0.94240094    0.12610000
opls_146-187    H    0.00737026    0.39754002    0.80980972    0.12090000
opls_146-188    H    0.95503017    0.34741990    0.66941854    0.12820000
opls_146-189    H    0.81388988    0.35504004    0.93902096    0.12660000
opls_146-190    H    0.86817987    0.40199985    0.05165930    0.12350000
opls_146-191    H    0.68875040    0.28592995    0.77840082    0.12650000
opls_185-192    H    0.60498982    0.25052005    0.36290973    0.07710000
opls_185-193    H    0.54492032    0.24732984    0.46033950    0.09320000
opls_185-194    H    0.58937999    0.29156980    0.81072909    0.07730000
opls_144-195    H    0.76926979    0.31971988    0.94237950    0.12610000
