#======================================================================
# Crystal Data Generated By AuToFF
#----------------------------------------------------------------------

data_AuToFF_phase_1

_cell_length_a                         38.0488
_cell_length_b                         26.3526
_cell_length_c                         6.7712
_cell_angle_alpha                      90.00
_cell_angle_beta                       90.00
_cell_angle_gamma                      90.00
_symmetry_space_group_name_H-M_alt     'P 1'
_symmetry_space_group_IT_number        1

loop_
_space_group_symop_operation_xyz
   'x, y, z'

loop_
   _atom_site_label
   _atom_site_type_symbol
   _atom_site_fract_x
   _atom_site_fract_y
   _atom_site_fract_z
   _atom_site_charge
opls_700-0    C    0.46786995    0.10748010    0.98224982    0.02930000
opls_145-1    C    0.39459011    0.79741012    0.89627983    -0.16170000
opls_700-2    C    0.28559008    0.74112991    0.01348948    -0.06520000
opls_145-3    C    0.26333997    0.69880998    0.01456020    -0.16640000
opls_234-4    C    0.30332993    0.32339997    0.52091948    0.45390000
opls_234-5    C    0.32375003    0.24540994    0.51637967    0.45400000
opls_700-6    C    0.46780004    0.05388994    0.96107042    0.03390000
opls_145-7    C    0.56354997    0.02637994    0.93499970    -0.11580000
opls_700-8    C    0.27273002    0.79040019    0.01521001    -0.07070000
opls_145-9    C    0.36884002    0.81516017    0.02787984    0.19230000
opls_700-10    C    0.43483999    0.86312015    0.00741966    0.06710000
opls_145-11    C    0.42725001    0.82163999    0.88429968    -0.12660000
opls_145-12    C    0.37731992    0.85445990    0.15908997    -0.16610000
opls_145-13    C    0.41030992    0.87742006    0.15211041    -0.11480000
opls_700-14    C    0.46786995    0.60748010    0.48224982    0.02930000
opls_145-15    C    0.39459011    0.29741012    0.39627983    -0.16170000
opls_700-16    C    0.28559008    0.24112991    0.51348948    -0.06520000
opls_145-17    C    0.26333997    0.19880998    0.51456020    -0.16640000
opls_234-18    C    0.30332993    0.82339997    0.02091948    0.45390000
opls_234-19    C    0.32375003    0.74540994    0.01637967    0.45390000
opls_700-20    C    0.46780004    0.55388994    0.46107042    0.03390000
opls_145-21    C    0.56354997    0.52637994    0.43499970    -0.11580000
opls_700-22    C    0.27273002    0.29040019    0.51521001    -0.07070000
opls_145-23    C    0.36884002    0.31516017    0.52787984    0.19230000
opls_700-24    C    0.43483999    0.36312015    0.50741966    0.06710000
opls_145-25    C    0.42725001    0.32163999    0.38429968    -0.12660000
opls_145-26    C    0.37731992    0.35445990    0.65908997    -0.16610000
opls_145-27    C    0.41030992    0.37742006    0.65211041    -0.11480000
opls_700-28    C    0.96786995    0.10748010    0.48224982    0.02930000
opls_145-29    C    0.89459011    0.79741012    0.39627983    -0.16160000
opls_700-30    C    0.78559008    0.74112991    0.51348948    -0.06520000
opls_145-31    C    0.76333997    0.69880998    0.51456020    -0.16640000
opls_234-32    C    0.80332993    0.32339997    0.02091948    0.45390000
opls_234-33    C    0.82375003    0.24540994    0.01637967    0.45400000
opls_700-34    C    0.96780004    0.05388994    0.46107042    0.03390000
opls_145-35    C    0.06354997    0.02637994    0.43499970    -0.11580000
opls_700-36    C    0.77273002    0.79040019    0.51521001    -0.07070000
opls_145-37    C    0.86884002    0.81516017    0.52787984    0.19230000
opls_700-38    C    0.93483999    0.86312015    0.50741966    0.06710000
opls_145-39    C    0.92725001    0.82163999    0.38429968    -0.12660000
opls_145-40    C    0.87731992    0.85445990    0.65908997    -0.16610000
opls_145-41    C    0.91030992    0.87742006    0.65211041    -0.11480000
opls_700-42    C    0.96786995    0.60748010    0.98224982    0.02930000
opls_145-43    C    0.89459011    0.29741012    0.89627983    -0.16170000
opls_700-44    C    0.78559008    0.24112991    0.01348948    -0.06520000
opls_145-45    C    0.76333997    0.19880998    0.01456020    -0.16640000
opls_234-46    C    0.80332993    0.82339997    0.52091948    0.45390000
opls_234-47    C    0.82375003    0.74540994    0.51637967    0.45390000
opls_700-48    C    0.96780004    0.55388994    0.96107042    0.03390000
opls_145-49    C    0.06354997    0.52637994    0.93499970    -0.11580000
opls_700-50    C    0.77273002    0.29040019    0.01521001    -0.07070000
opls_145-51    C    0.86884002    0.31516017    0.02787984    0.19230000
opls_700-52    C    0.93483999    0.36312015    0.00741966    0.06710000
opls_145-53    C    0.92725001    0.32163999    0.88429968    -0.12660000
opls_145-54    C    0.87731992    0.35445990    0.15908997    -0.16610000
opls_145-55    C    0.91030992    0.37742006    0.15211041    -0.11480000
opls_700-56    C    0.53213005    0.89251990    0.98224982    0.02930000
opls_145-57    C    0.60540989    0.20258988    0.89627983    -0.16170000
opls_700-58    C    0.71440992    0.25887009    0.01348948    -0.06520000
opls_145-59    C    0.73666003    0.30119002    0.01456020    -0.16640000
opls_234-60    C    0.69667007    0.67660003    0.52091948    0.45390000
opls_234-61    C    0.67624997    0.75459006    0.51637967    0.45390000
opls_700-62    C    0.53219996    0.94611006    0.96107042    0.03390000
opls_145-63    C    0.43645003    0.97362006    0.93499970    -0.11580000
opls_700-64    C    0.72726998    0.20959981    0.01521001    -0.07070000
opls_145-65    C    0.63115998    0.18483983    0.02787984    0.19230000
opls_700-66    C    0.56516001    0.13687985    0.00741966    0.06710000
opls_145-67    C    0.57274999    0.17836001    0.88429968    -0.12660000
opls_145-68    C    0.62268008    0.14554010    0.15908997    -0.16610000
opls_145-69    C    0.58969008    0.12257994    0.15211041    -0.11480000
opls_700-70    C    0.53213005    0.39251990    0.48224982    0.02930000
opls_145-71    C    0.60540989    0.70258988    0.39627983    -0.16170000
opls_700-72    C    0.71440992    0.75887009    0.51348948    -0.06520000
opls_145-73    C    0.73666003    0.80119002    0.51456020    -0.16640000
opls_234-74    C    0.69667007    0.17660003    0.02091948    0.45390000
opls_234-75    C    0.67624997    0.25459006    0.01637967    0.45390000
opls_700-76    C    0.53219996    0.44611006    0.46107042    0.03390000
opls_145-77    C    0.43645003    0.47362006    0.43499970    -0.11580000
opls_700-78    C    0.72726998    0.70959981    0.51521001    -0.07070000
opls_145-79    C    0.63115998    0.68483983    0.52787984    0.19230000
opls_700-80    C    0.56516001    0.63687985    0.50741966    0.06710000
opls_145-81    C    0.57274999    0.67836001    0.38429968    -0.12660000
opls_145-82    C    0.62268008    0.64554010    0.65908997    -0.16610000
opls_145-83    C    0.58969008    0.62257994    0.65211041    -0.11480000
opls_700-84    C    0.03213005    0.89251990    0.48224982    0.02930000
opls_145-85    C    0.10540989    0.20258988    0.39627983    -0.16170000
opls_700-86    C    0.21440992    0.25887009    0.51348948    -0.06520000
opls_145-87    C    0.23666003    0.30119002    0.51456020    -0.16640000
opls_234-88    C    0.19667007    0.67660003    0.02091948    0.45390000
opls_234-89    C    0.17624997    0.75459006    0.01637967    0.45390000
opls_700-90    C    0.03219996    0.94611006    0.46107042    0.03390000
opls_145-91    C    0.93645003    0.97362006    0.43499970    -0.11580000
opls_700-92    C    0.22726998    0.20959981    0.51521001    -0.07070000
opls_145-93    C    0.13115998    0.18483983    0.52787984    0.19230000
opls_700-94    C    0.06516001    0.13687985    0.50741966    0.06710000
opls_145-95    C    0.07274999    0.17836001    0.38429968    -0.12660000
opls_145-96    C    0.12268008    0.14554010    0.65908997    -0.16610000
opls_145-97    C    0.08969008    0.12257994    0.65211041    -0.11480000
opls_700-98    C    0.03213005    0.39251990    0.98224982    0.02930000
opls_145-99    C    0.10540989    0.70258988    0.89627983    -0.16170000
opls_700-100    C    0.21440992    0.75887009    0.01348948    -0.06520000
opls_145-101    C    0.23666003    0.80119002    0.01456020    -0.16640000
opls_234-102    C    0.19667007    0.17660003    0.52091948    0.45390000
opls_234-103    C    0.17624997    0.25459006    0.51637967    0.45390000
opls_700-104    C    0.03219996    0.44611006    0.96107042    0.03390000
opls_145-105    C    0.93645003    0.47362006    0.93499970    -0.11580000
opls_700-106    C    0.22726998    0.70959981    0.01521001    -0.07070000
opls_145-107    C    0.13115998    0.68483983    0.02787984    0.19230000
opls_700-108    C    0.06516001    0.63687985    0.00741966    0.06710000
opls_145-109    C    0.07274999    0.67836001    0.88429968    -0.12660000
opls_145-110    C    0.12268008    0.64554010    0.15908997    -0.16610000
opls_145-111    C    0.08969008    0.62257994    0.15211041    -0.11480000
opls_700-112    C    0.46786995    0.89251990    0.98224982    0.02930000
opls_145-113    C    0.39459011    0.20258988    0.89627983    -0.16170000
opls_700-114    C    0.28559008    0.25887009    0.01348948    -0.06520000
opls_145-115    C    0.26333997    0.30119002    0.01456020    -0.16640000
opls_234-116    C    0.30332993    0.67660003    0.52091948    0.45390000
opls_234-117    C    0.32375003    0.75459006    0.51637967    0.45390000
opls_700-118    C    0.46780004    0.94611006    0.96107042    0.03390000
opls_145-119    C    0.56354997    0.97362006    0.93499970    -0.11580000
opls_700-120    C    0.27273002    0.20959981    0.01521001    -0.07070000
opls_145-121    C    0.36884002    0.18483983    0.02787984    0.19230000
opls_700-122    C    0.43483999    0.13687985    0.00741966    0.06710000
opls_145-123    C    0.42725001    0.17836001    0.88429968    -0.12660000
opls_145-124    C    0.37731992    0.14554010    0.15908997    -0.16610000
opls_145-125    C    0.41030992    0.12257994    0.15211041    -0.11480000
opls_700-126    C    0.46786995    0.39251990    0.48224982    0.02930000
opls_145-127    C    0.39459011    0.70258988    0.39627983    -0.16170000
opls_700-128    C    0.28559008    0.75887009    0.51348948    -0.06520000
opls_145-129    C    0.26333997    0.80119002    0.51456020    -0.16640000
opls_234-130    C    0.30332993    0.17660003    0.02091948    0.45390000
opls_234-131    C    0.32375003    0.25459006    0.01637967    0.45390000
opls_700-132    C    0.46780004    0.44611006    0.46107042    0.03390000
opls_145-133    C    0.56354997    0.47362006    0.43499970    -0.11580000
opls_700-134    C    0.27273002    0.70959981    0.51521001    -0.07070000
opls_145-135    C    0.36884002    0.68483983    0.52787984    0.19230000
opls_700-136    C    0.43483999    0.63687985    0.50741966    0.06710000
opls_145-137    C    0.42725001    0.67836001    0.38429968    -0.12660000
opls_145-138    C    0.37731992    0.64554010    0.65908997    -0.16610000
opls_145-139    C    0.41030992    0.62257994    0.65211041    -0.11480000
opls_700-140    C    0.96786995    0.89251990    0.48224982    0.02930000
opls_145-141    C    0.89459011    0.20258988    0.39627983    -0.16170000
opls_700-142    C    0.78559008    0.25887009    0.51348948    -0.06520000
opls_145-143    C    0.76333997    0.30119002    0.51456020    -0.16640000
opls_234-144    C    0.80332993    0.67660003    0.02091948    0.45390000
opls_234-145    C    0.82375003    0.75459006    0.01637967    0.45390000
opls_700-146    C    0.96780004    0.94611006    0.46107042    0.03390000
opls_145-147    C    0.06354997    0.97362006    0.43499970    -0.11580000
opls_700-148    C    0.77273002    0.20959981    0.51521001    -0.07070000
opls_145-149    C    0.86884002    0.18483983    0.52787984    0.19230000
opls_700-150    C    0.93483999    0.13687985    0.50741966    0.06710000
opls_145-151    C    0.92725001    0.17836001    0.38429968    -0.12660000
opls_145-152    C    0.87731992    0.14554010    0.65908997    -0.16610000
opls_145-153    C    0.91030992    0.12257994    0.65211041    -0.11480000
opls_700-154    C    0.96786995    0.39251990    0.98224982    0.02930000
opls_145-155    C    0.89459011    0.70258988    0.89627983    -0.16170000
opls_700-156    C    0.78559008    0.75887009    0.01348948    -0.06520000
opls_145-157    C    0.76333997    0.80119002    0.01456020    -0.16640000
opls_234-158    C    0.80332993    0.17660003    0.52091948    0.45400000
opls_234-159    C    0.82375003    0.25459006    0.51637967    0.45390000
opls_700-160    C    0.96780004    0.44611006    0.96107042    0.03390000
opls_145-161    C    0.06354997    0.47362006    0.93499970    -0.11580000
opls_700-162    C    0.77273002    0.70959981    0.01521001    -0.07070000
opls_145-163    C    0.86884002    0.68483983    0.02787984    0.19230000
opls_700-164    C    0.93483999    0.63687985    0.00741966    0.06710000
opls_145-165    C    0.92725001    0.67836001    0.88429968    -0.12660000
opls_145-166    C    0.87731992    0.64554010    0.15908997    -0.16610000
opls_145-167    C    0.91030992    0.62257994    0.15211041    -0.11480000
opls_700-168    C    0.53213005    0.10748010    0.98224982    0.02930000
opls_145-169    C    0.60540989    0.79741012    0.89627983    -0.16170000
opls_700-170    C    0.71440992    0.74112991    0.01348948    -0.06520000
opls_145-171    C    0.73666003    0.69880998    0.01456020    -0.16640000
opls_234-172    C    0.69667007    0.32339997    0.52091948    0.45390000
opls_234-173    C    0.67624997    0.24540994    0.51637967    0.45400000
opls_700-174    C    0.53219996    0.05388994    0.96107042    0.03390000
opls_145-175    C    0.43645003    0.02637994    0.93499970    -0.11580000
opls_700-176    C    0.72726998    0.79040019    0.01521001    -0.07070000
opls_145-177    C    0.63115998    0.81516017    0.02787984    0.19230000
opls_700-178    C    0.56516001    0.86312015    0.00741966    0.06720000
opls_145-179    C    0.57274999    0.82163999    0.88429968    -0.12660000
opls_145-180    C    0.62268008    0.85445990    0.15908997    -0.16610000
opls_145-181    C    0.58969008    0.87742006    0.15211041    -0.11480000
opls_700-182    C    0.53213005    0.60748010    0.48224982    0.02930000
opls_145-183    C    0.60540989    0.29741012    0.39627983    -0.16170000
opls_700-184    C    0.71440992    0.24112991    0.51348948    -0.06520000
opls_145-185    C    0.73666003    0.19880998    0.51456020    -0.16640000
opls_234-186    C    0.69667007    0.82339997    0.02091948    0.45390000
opls_234-187    C    0.67624997    0.74540994    0.01637967    0.45400000
opls_700-188    C    0.53219996    0.55388994    0.46107042    0.03390000
opls_145-189    C    0.43645003    0.52637994    0.43499970    -0.11580000
opls_700-190    C    0.72726998    0.29040019    0.51521001    -0.07070000
opls_145-191    C    0.63115998    0.31516017    0.52787984    0.19230000
opls_700-192    C    0.56516001    0.36312015    0.50741966    0.06710000
opls_145-193    C    0.57274999    0.32163999    0.38429968    -0.12660000
opls_145-194    C    0.62268008    0.35445990    0.65908997    -0.16610000
opls_145-195    C    0.58969008    0.37742006    0.65211041    -0.11480000
opls_700-196    C    0.03213005    0.10748010    0.48224982    0.02930000
opls_145-197    C    0.10540989    0.79741012    0.39627983    -0.16170000
opls_700-198    C    0.21440992    0.74112991    0.51348948    -0.06520000
opls_145-199    C    0.23666003    0.69880998    0.51456020    -0.16640000
opls_234-200    C    0.19667007    0.32339997    0.02091948    0.45390000
opls_234-201    C    0.17624997    0.24540994    0.01637967    0.45390000
opls_700-202    C    0.03219996    0.05388994    0.46107042    0.03390000
opls_145-203    C    0.93645003    0.02637994    0.43499970    -0.11580000
opls_700-204    C    0.22726998    0.79040019    0.51521001    -0.07070000
opls_145-205    C    0.13115998    0.81516017    0.52787984    0.19230000
opls_700-206    C    0.06516001    0.86312015    0.50741966    0.06710000
opls_145-207    C    0.07274999    0.82163999    0.38429968    -0.12660000
opls_145-208    C    0.12268008    0.85445990    0.65908997    -0.16610000
opls_145-209    C    0.08969008    0.87742006    0.65211041    -0.11480000
opls_700-210    C    0.03213005    0.60748010    0.98224982    0.02930000
opls_145-211    C    0.10540989    0.29741012    0.89627983    -0.16170000
opls_700-212    C    0.21440992    0.24112991    0.01348948    -0.06520000
opls_145-213    C    0.23666003    0.19880998    0.01456020    -0.16640000
opls_234-214    C    0.19667007    0.82339997    0.52091948    0.45390000
opls_234-215    C    0.17624997    0.74540994    0.51637967    0.45400000
opls_700-216    C    0.03219996    0.55388994    0.96107042    0.03390000
opls_145-217    C    0.93645003    0.52637994    0.93499970    -0.11580000
opls_700-218    C    0.22726998    0.29040019    0.01521001    -0.07070000
opls_145-219    C    0.13115998    0.31516017    0.02787984    0.19230000
opls_700-220    C    0.06516001    0.36312015    0.00741966    0.06710000
opls_145-221    C    0.07274999    0.32163999    0.88429968    -0.12660000
opls_145-222    C    0.12268008    0.35445990    0.15908997    -0.16610000
opls_145-223    C    0.08969008    0.37742006    0.15211041    -0.11470000
opls_145-224    C    0.50000000    0.13340999    0.99168980    -0.16450000
opls_700-225    C    0.50000000    0.02700986    0.96054023    0.02210000
opls_145-226    C    0.50000000    0.63340999    0.49168980    -0.16460000
opls_700-227    C    0.50000000    0.52700986    0.46054023    0.02210000
opls_145-228    C    0.00000000    0.13340999    0.49168980    -0.16460000
opls_700-229    C    0.00000000    0.02700986    0.46054023    0.02210000
opls_145-230    C    0.00000000    0.63340999    0.99168980    -0.16460000
opls_700-231    C    0.00000000    0.52700986    0.96054023    0.02210000
opls_145-232    C    0.50000000    0.86659001    0.99168980    -0.16460000
opls_700-233    C    0.50000000    0.97299014    0.96054023    0.02210000
opls_145-234    C    0.50000000    0.36659001    0.49168980    -0.16460000
opls_700-235    C    0.50000000    0.47299014    0.46054023    0.02210000
opls_145-236    C    0.00000000    0.86659001    0.49168980    -0.16460000
opls_700-237    C    0.00000000    0.97299014    0.46054023    0.02210000
opls_145-238    C    0.00000000    0.36659001    0.99168980    -0.16450000
opls_700-239    C    0.00000000    0.47299014    0.96054023    0.02210000
opls_146-240    H    0.58849004    0.04526992    0.91374055    0.12500000
opls_146-241    H    0.44609002    0.80919985    0.77453036    0.11770000
opls_146-242    H    0.35816005    0.86789008    0.26501949    0.12400000
opls_146-243    H    0.41613008    0.90805993    0.25364042    0.11640000
opls_146-244    H    0.38891003    0.76639003    0.79696066    0.12190000
opls_146-245    H    0.27334003    0.66038987    0.01640034    0.12440000
opls_146-246    H    0.58849004    0.54526992    0.41374055    0.12500000
opls_146-247    H    0.44609002    0.30919985    0.27453036    0.11770000
opls_146-248    H    0.35816005    0.36789008    0.76501949    0.12400000
opls_146-249    H    0.41613008    0.40805993    0.75364042    0.11640000
opls_146-250    H    0.38891003    0.26639003    0.29696066    0.12190000
opls_146-251    H    0.27334003    0.16038987    0.51640034    0.12440000
opls_146-252    H    0.08849004    0.04526992    0.41374055    0.12500000
opls_146-253    H    0.94609002    0.80919985    0.27453036    0.11770000
opls_146-254    H    0.85816005    0.86789008    0.76501949    0.12400000
opls_146-255    H    0.91613008    0.90805993    0.75364042    0.11640000
opls_146-256    H    0.88891003    0.76639003    0.29696066    0.12190000
opls_146-257    H    0.77334003    0.66038987    0.51640034    0.12450000
opls_146-258    H    0.08849004    0.54526992    0.91374055    0.12500000
opls_146-259    H    0.94609002    0.30919985    0.77453036    0.11770000
opls_146-260    H    0.85816005    0.36789008    0.26501949    0.12400000
opls_146-261    H    0.91613008    0.40805993    0.25364042    0.11640000
opls_146-262    H    0.88891003    0.26639003    0.79696066    0.12190000
opls_146-263    H    0.77334003    0.16038987    0.01640034    0.12440000
opls_146-264    H    0.41150996    0.95473008    0.91374055    0.12500000
opls_146-265    H    0.55390998    0.19080015    0.77453036    0.11770000
opls_146-266    H    0.64183995    0.13210992    0.26501949    0.12400000
opls_146-267    H    0.58386992    0.09194007    0.25364042    0.11640000
opls_146-268    H    0.61108997    0.23360997    0.79696066    0.12190000
opls_146-269    H    0.72665997    0.33961013    0.01640034    0.12440000
opls_146-270    H    0.41150996    0.45473008    0.41374055    0.12500000
opls_146-271    H    0.55390998    0.69080015    0.27453036    0.11770000
opls_146-272    H    0.64183995    0.63210992    0.76501949    0.12400000
opls_146-273    H    0.58386992    0.59194007    0.75364042    0.11640000
opls_146-274    H    0.61108997    0.73360997    0.29696066    0.12190000
opls_146-275    H    0.72665997    0.83961013    0.51640034    0.12440000
opls_146-276    H    0.91150996    0.95473008    0.41374055    0.12500000
opls_146-277    H    0.05390998    0.19080015    0.27453036    0.11770000
opls_146-278    H    0.14183995    0.13210992    0.76501949    0.12400000
opls_146-279    H    0.08386992    0.09194007    0.75364042    0.11640000
opls_146-280    H    0.11108997    0.23360997    0.29696066    0.12200000
opls_146-281    H    0.22665997    0.33961013    0.51640034    0.12440000
opls_146-282    H    0.91150996    0.45473008    0.91374055    0.12500000
opls_146-283    H    0.05390998    0.69080015    0.77453036    0.11770000
opls_146-284    H    0.14183995    0.63210992    0.26501949    0.12400000
opls_146-285    H    0.08386992    0.59194007    0.25364042    0.11640000
opls_146-286    H    0.11108997    0.73360997    0.79696066    0.12190000
opls_146-287    H    0.22665997    0.83961013    0.01640034    0.12440000
opls_146-288    H    0.58849004    0.95473008    0.91374055    0.12500000
opls_146-289    H    0.44609002    0.19080015    0.77453036    0.11770000
opls_146-290    H    0.35816005    0.13210992    0.26501949    0.12400000
opls_146-291    H    0.41613008    0.09194007    0.25364042    0.11640000
opls_146-292    H    0.38891003    0.23360997    0.79696066    0.12190000
opls_146-293    H    0.27334003    0.33961013    0.01640034    0.12440000
opls_146-294    H    0.58849004    0.45473008    0.41374055    0.12500000
opls_146-295    H    0.44609002    0.69080015    0.27453036    0.11770000
opls_146-296    H    0.35816005    0.63210992    0.76501949    0.12400000
opls_146-297    H    0.41613008    0.59194007    0.75364042    0.11640000
opls_146-298    H    0.38891003    0.73360997    0.29696066    0.12190000
opls_146-299    H    0.27334003    0.83961013    0.51640034    0.12440000
opls_146-300    H    0.08849004    0.95473008    0.41374055    0.12500000
opls_146-301    H    0.94609002    0.19080015    0.27453036    0.11770000
opls_146-302    H    0.85816005    0.13210992    0.76501949    0.12400000
opls_146-303    H    0.91613008    0.09194007    0.75364042    0.11640000
opls_146-304    H    0.88891003    0.23360997    0.29696066    0.12190000
opls_146-305    H    0.77334003    0.33961013    0.51640034    0.12440000
opls_146-306    H    0.08849004    0.45473008    0.91374055    0.12500000
opls_146-307    H    0.94609002    0.69080015    0.77453036    0.11770000
opls_146-308    H    0.85816005    0.63210992    0.26501949    0.12400000
opls_146-309    H    0.91613008    0.59194007    0.25364042    0.11640000
opls_146-310    H    0.88891003    0.73360997    0.79696066    0.12190000
opls_146-311    H    0.77334003    0.83961013    0.01640034    0.12440000
opls_146-312    H    0.41150996    0.04526992    0.91374055    0.12500000
opls_146-313    H    0.55390998    0.80919985    0.77453036    0.11770000
opls_146-314    H    0.64183995    0.86789008    0.26501949    0.12400000
opls_146-315    H    0.58386992    0.90805993    0.25364042    0.11640000
opls_146-316    H    0.61108997    0.76639003    0.79696066    0.12190000
opls_146-317    H    0.72665997    0.66038987    0.01640034    0.12450000
opls_146-318    H    0.41150996    0.54526992    0.41374055    0.12500000
opls_146-319    H    0.55390998    0.30919985    0.27453036    0.11770000
opls_146-320    H    0.64183995    0.36789008    0.76501949    0.12400000
opls_146-321    H    0.58386992    0.40805993    0.75364042    0.11640000
opls_146-322    H    0.61108997    0.26639003    0.29696066    0.12190000
opls_146-323    H    0.72665997    0.16038987    0.51640034    0.12440000
opls_146-324    H    0.91150996    0.04526992    0.41374055    0.12500000
opls_146-325    H    0.05390998    0.80919985    0.27453036    0.11770000
opls_146-326    H    0.14183995    0.86789008    0.76501949    0.12400000
opls_146-327    H    0.08386992    0.90805993    0.75364042    0.11640000
opls_146-328    H    0.11108997    0.76639003    0.29696066    0.12190000
opls_146-329    H    0.22665997    0.66038987    0.51640034    0.12440000
opls_146-330    H    0.91150996    0.54526992    0.91374055    0.12500000
opls_146-331    H    0.05390998    0.30919985    0.77453036    0.11770000
opls_146-332    H    0.14183995    0.36789008    0.26501949    0.12400000
opls_146-333    H    0.08386992    0.40805993    0.25364042    0.11640000
opls_146-334    H    0.11108997    0.26639003    0.79696066    0.12190000
opls_146-335    H    0.22665997    0.16038987    0.01640034    0.12440000
opls_146-336    H    0.50000000    0.67419002    0.51323990    0.11720000
opls_146-337    H    0.50000000    0.17419002    0.01323990    0.11720000
opls_146-338    H    0.00000000    0.67419002    0.01323990    0.11720000
opls_146-339    H    0.00000000    0.17419002    0.51323990    0.11720000
opls_146-340    H    0.50000000    0.32580998    0.51323990    0.11720000
opls_146-341    H    0.50000000    0.82580998    0.01323990    0.11720000
opls_146-342    H    0.00000000    0.32580998    0.01323990    0.11720000
opls_146-343    H    0.00000000    0.82580998    0.51323990    0.11720000
opls_542-344    N    0.33362997    0.29532987    0.52226932    -0.20290000
opls_542-345    N    0.33362997    0.79532987    0.02226932    -0.20290000
opls_542-346    N    0.83362997    0.29532987    0.02226932    -0.20290000
opls_542-347    N    0.83362997    0.79532987    0.52226932    -0.20290000
opls_542-348    N    0.66637003    0.70467013    0.52226932    -0.20280000
opls_542-349    N    0.66637003    0.20467013    0.02226932    -0.20280000
opls_542-350    N    0.16637003    0.70467013    0.02226932    -0.20290000
opls_542-351    N    0.16637003    0.20467013    0.52226932    -0.20290000
opls_542-352    N    0.33362997    0.70467013    0.52226932    -0.20290000
opls_542-353    N    0.33362997    0.20467013    0.02226932    -0.20280000
opls_542-354    N    0.83362997    0.70467013    0.02226932    -0.20290000
opls_542-355    N    0.83362997    0.20467013    0.52226932    -0.20280000
opls_542-356    N    0.66637003    0.29532987    0.52226932    -0.20290000
opls_542-357    N    0.66637003    0.79532987    0.02226932    -0.20290000
opls_542-358    N    0.16637003    0.29532987    0.02226932    -0.20290000
opls_542-359    N    0.16637003    0.79532987    0.52226932    -0.20290000
opls_236-360    O    0.30246000    0.36964019    0.52060935    -0.37730000
opls_236-361    O    0.34421007    0.20987986    0.51705015    -0.37980000
opls_236-362    O    0.30246000    0.86964019    0.02060935    -0.37730000
opls_236-363    O    0.34421007    0.70987986    0.01705015    -0.37970000
opls_236-364    O    0.80246000    0.36964019    0.02060935    -0.37730000
opls_236-365    O    0.84421007    0.20987986    0.01705015    -0.37980000
opls_236-366    O    0.80246000    0.86964019    0.52060935    -0.37730000
opls_236-367    O    0.84421007    0.70987986    0.51705015    -0.37980000
opls_236-368    O    0.69754000    0.63035981    0.52060935    -0.37730000
opls_236-369    O    0.65578993    0.79012014    0.51705015    -0.37970000
opls_236-370    O    0.69754000    0.13035981    0.02060935    -0.37730000
opls_236-371    O    0.65578993    0.29012014    0.01705015    -0.37980000
opls_236-372    O    0.19754000    0.63035981    0.02060935    -0.37730000
opls_236-373    O    0.15578993    0.79012014    0.01705015    -0.37970000
opls_236-374    O    0.19754000    0.13035981    0.52060935    -0.37730000
opls_236-375    O    0.15578993    0.29012014    0.51705015    -0.37980000
opls_236-376    O    0.30246000    0.63035981    0.52060935    -0.37730000
opls_236-377    O    0.34421007    0.79012014    0.51705015    -0.37980000
opls_236-378    O    0.30246000    0.13035981    0.02060935    -0.37730000
opls_236-379    O    0.34421007    0.29012014    0.01705015    -0.37970000
opls_236-380    O    0.80246000    0.63035981    0.02060935    -0.37730000
opls_236-381    O    0.84421007    0.79012014    0.01705015    -0.37980000
opls_236-382    O    0.80246000    0.13035981    0.52060935    -0.37730000
opls_236-383    O    0.84421007    0.29012014    0.51705015    -0.37980000
opls_236-384    O    0.69754000    0.36964019    0.52060935    -0.37730000
opls_236-385    O    0.65578993    0.20987986    0.51705015    -0.37970000
opls_236-386    O    0.69754000    0.86964019    0.02060935    -0.37730000
opls_236-387    O    0.65578993    0.70987986    0.01705015    -0.37980000
opls_236-388    O    0.19754000    0.36964019    0.02060935    -0.37720000
opls_236-389    O    0.15578993    0.20987986    0.01705015    -0.37980000
opls_236-390    O    0.19754000    0.86964019    0.52060935    -0.37730000
opls_236-391    O    0.15578993    0.70987986    0.51705015    -0.37980000
