#======================================================================
# Crystal Data Generated By AuToFF
#----------------------------------------------------------------------

data_AuToFF_phase_1

_cell_length_a                         30.1732
_cell_length_b                         30.1732
_cell_length_c                         3.7407
_cell_angle_alpha                      90.00
_cell_angle_beta                       90.00
_cell_angle_gamma                      120.00
_symmetry_space_group_name_H-M_alt     'P 1'
_symmetry_space_group_IT_number        1

loop_
_space_group_symop_operation_xyz
   'x, y, z'

loop_
   _atom_site_label
   _atom_site_type_symbol
   _atom_site_fract_x
   _atom_site_fract_y
   _atom_site_fract_z
   _atom_site_charge
opls_700-0    C    0.94751998    0.46558998    0.51034031    -0.11220000
opls_700-1    C    0.53441004    0.48191978    0.51034031    -0.11220000
opls_700-2    C    0.51808007    0.05247991    0.51034031    -0.11280000
opls_145-3    C    0.98379006    0.45213993    0.40360895    -0.23500000
opls_145-4    C    0.54786008    0.53165006    0.40360895    -0.23280000
opls_145-5    C    0.46834986    0.01621001    0.40360895    -0.23280000
opls_166-6    C    0.03585023    0.48850014    0.38366883    0.21160000
opls_166-7    C    0.51149993    0.54734994    0.38366883    0.21160000
opls_166-8    C    0.45264984    0.96414991    0.38366883    0.21180000
opls_234-9    C    0.89324008    0.42161001    0.53998984    0.44300000
opls_234-10    C    0.57838986    0.47162999    0.53998984    0.44090000
opls_234-11    C    0.52837006    0.10676000    0.53998984    0.44300000
opls_142-12    C    0.77407996    0.40713014    0.26897105    0.01310000
opls_142-13    C    0.59287005    0.36694991    0.26897105    0.01310000
opls_142-14    C    0.63304999    0.22591995    0.26897105    0.01310000
opls_700-15    C    0.71942988    0.36930996    0.24880103    0.05400000
opls_700-16    C    0.63069013    0.35011994    0.24880103    0.05480000
opls_700-17    C    0.64987999    0.28057010    0.24880103    0.05400000
opls_145-18    C    0.70232022    0.31636011    0.24572941    -0.16720000
opls_145-19    C    0.68363996    0.38595012    0.24572941    -0.16720000
opls_145-20    C    0.61404977    0.29767982    0.24572941    -0.16720000
opls_182-21    C    0.94453014    0.58114996    0.84359879    0.01420000
opls_182-22    C    0.41885002    0.36337979    0.84359879    0.01450000
opls_182-23    C    0.63661997    0.05546988    0.84359879    0.01420000
opls_700-24    C    0.05251991    0.53999998    0.47201059    -0.10840000
opls_700-25    C    0.46001007    0.51252011    0.47201059    -0.10840000
opls_700-26    C    0.48747996    0.94747990    0.47201059    -0.10840000
opls_145-27    C    0.01616001    0.55344008    0.57780897    -0.22960000
opls_145-28    C    0.44655981    0.46271980    0.57780897    -0.22960000
opls_145-29    C    0.53727999    0.98383974    0.57780897    -0.23280000
opls_166-30    C    0.96415020    0.51704007    0.59927019    0.21750000
opls_166-31    C    0.48295996    0.44710984    0.59927019    0.21750000
opls_166-32    C    0.55289017    0.03584014    0.59927019    0.21750000
opls_234-33    C    0.10700994    0.58399985    0.45096105    0.44700000
opls_234-34    C    0.41600007    0.52301005    0.45096105    0.44700000
opls_234-35    C    0.47698999    0.89299010    0.45096105    0.44700000
opls_142-36    C    0.22539999    0.59490003    0.70535996    0.01310000
opls_142-37    C    0.40508991    0.63048989    0.70535996    0.01310000
opls_142-38    C    0.36950991    0.77459974    0.70535996    0.01310000
opls_700-39    C    0.28028012    0.63162993    0.73356056    0.05410000
opls_700-40    C    0.36837009    0.64865010    0.73356056    0.05460000
opls_700-41    C    0.35135012    0.71971998    0.73356056    0.05460000
opls_145-42    C    0.29866993    0.68486986    0.73753041    -0.17210000
opls_145-43    C    0.31514008    0.61379998    0.73753041    -0.16750000
opls_145-44    C    0.38619973    0.70132977    0.73753041    -0.16750000
opls_182-45    C    0.05539995    0.42430989    0.14025984    0.01420000
opls_182-46    C    0.57569007    0.63108995    0.14025984    0.01420000
opls_182-47    C    0.36890979    0.94459977    0.14025984    0.01420000
opls_142-48    C    0.57705008    0.67849002    0.00259042    -0.04240000
opls_142-49    C    0.32150988    0.89855978    0.00259042    -0.04240000
opls_142-50    C    0.10143984    0.42294981    0.00259042    -0.04240000
opls_143-51    C    0.61249003    0.72593985    0.09515064    -0.26580000
opls_143-52    C    0.27405983    0.88654980    0.09515064    -0.26580000
opls_143-53    C    0.11344995    0.38750997    0.09515064    -0.26570000
opls_142-54    C    0.41777002    0.31637006    0.98713877    -0.05890000
opls_142-55    C    0.68362990    0.10140004    0.98713877    -0.05890000
opls_142-56    C    0.89860007    0.58222991    0.98713877    -0.06590000
opls_143-57    C    0.38255989    0.26866995    0.89766889    -0.26580000
opls_143-58    C    0.73132985    0.11389986    0.89766889    -0.26580000
opls_143-59    C    0.88609999    0.61744014    0.89766889    -0.26570000
opls_238-60    N    0.85642995    0.43177007    0.40491887    -0.24000000
opls_238-61    N    0.56822997    0.42467001    0.40491887    -0.23550000
opls_238-62    N    0.57532981    0.14356988    0.40491887    -0.24010000
opls_750-63    N    0.80608013    0.39429010    0.39144010    -0.11040000
opls_750-64    N    0.60570996    0.41177983    0.39144010    -0.11040000
opls_750-65    N    0.58820991    0.19392012    0.39144010    -0.11040000
opls_238-66    N    0.14349009    0.57258993    0.57583073    -0.24720000
opls_238-67    N    0.42741007    0.57089997    0.57583073    -0.24720000
opls_238-68    N    0.42910017    0.85651011    0.57583073    -0.24720000
opls_750-69    N    0.19403978    0.60939980    0.59569867    -0.02950000
opls_750-70    N    0.39059998    0.58464009    0.59569867    -0.02950000
opls_750-71    N    0.41535991    0.80596010    0.59569867    -0.02950000
opls_236-72    O    0.88382015    0.37993001    0.66376079    -0.44560000
opls_236-73    O    0.62007005    0.50390000    0.66376079    -0.45230000
opls_236-74    O    0.49609986    0.11617994    0.66376079    -0.43800000
opls_179-75    O    0.92688014    0.52897007    0.70903040    -0.24350000
opls_179-76    O    0.47102987    0.39790997    0.70903040    -0.24350000
opls_179-77    O    0.60208998    0.07311996    0.70903040    -0.24340000
opls_236-78    O    0.11687018    0.62663007    0.34447029    -0.44690000
opls_236-79    O    0.37336983    0.49023986    0.34447029    -0.44680000
opls_236-80    O    0.50975999    0.88313007    0.34447029    -0.44690000
opls_179-81    O    0.07312993    0.47640979    0.27668886    -0.24350000
opls_179-82    O    0.52359006    0.59673006    0.27668886    -0.24350000
opls_179-83    O    0.40327007    0.92687009    0.27668886    -0.24350000
opls_146-84    H    0.96946000    0.41236994    0.33735130    0.12070000
opls_146-85    H    0.58762979    0.55708981    0.33735130    0.12070000
opls_146-86    H    0.44291003    0.03053987    0.33735130    0.12080000
opls_910-87    H    0.86747020    0.46732012    0.30615928    0.25580000
opls_910-88    H    0.53268002    0.40014986    0.30615928    0.25580000
opls_910-89    H    0.59985011    0.13253001    0.30615928    0.26850000
opls_144-90    H    0.78618003    0.44662000    0.18798086    0.06630000
opls_144-91    H    0.55338000    0.33955997    0.18798086    0.06630000
opls_144-92    H    0.66043997    0.21382003    0.18798086    0.06630000
opls_146-93    H    0.69607000    0.42646980    0.24514930    0.11510000
opls_146-94    H    0.57353001    0.26959989    0.24514930    0.11510000
opls_146-95    H    0.73039980    0.30392993    0.24514930    0.11450000
opls_146-96    H    0.03052985    0.59322002    0.64399979    0.12380000
opls_146-97    H    0.40677985    0.43731985    0.64399979    0.12070000
opls_146-98    H    0.56268004    0.96947008    0.64399979    0.12370000
opls_910-99    H    0.13216018    0.53607013    0.65389098    0.25230000
opls_910-100    H    0.46392987    0.59608982    0.65389098    0.25230000
opls_910-101    H    0.40390995    0.86784005    0.65389098    0.25230000
opls_144-102    H    0.21248975    0.55471980    0.77093057    0.06810000
opls_144-103    H    0.44528001    0.65776005    0.77093057    0.06720000
opls_144-104    H    0.34223999    0.78750982    0.77093057    0.06810000
opls_146-105    H    0.30176996    0.57307977    0.73445077    0.11510000
opls_146-106    H    0.42692000    0.72868987    0.73445077    0.11490000
opls_146-107    H    0.27132013    0.69822998    0.73445077    0.11450000
opls_185-108    H    0.96284000    0.60904007    0.62810971    0.08210000
opls_185-109    H    0.39096010    0.35379989    0.62810971    0.08210000
opls_185-110    H    0.64619989    0.03716004    0.62810971    0.08210000
opls_185-111    H    0.02749021    0.41670009    0.92762050    0.07730000
opls_185-112    H    0.58329996    0.61079012    0.92762050    0.07730000
opls_185-113    H    0.38921978    0.97250979    0.92762050    0.08000000
opls_185-114    H    0.97298990    0.58925994    0.05297939    0.07720000
opls_185-115    H    0.41074010    0.38374008    0.05297939    0.07770000
opls_185-116    H    0.61626006    0.02700993    0.05297939    0.07670000
opls_185-117    H    0.03640007    0.39617983    0.35354078    0.07550000
opls_185-118    H    0.60381995    0.64021980    0.35354078    0.07560000
opls_185-119    H    0.35978012    0.96359999    0.35354078    0.07550000
opls_144-120    H    0.54770994    0.67232985    0.80847970    0.11360000
opls_144-121    H    0.32766976    0.87537982    0.80847970    0.11360000
opls_144-122    H    0.12462011    0.45228994    0.80847970    0.11360000
opls_144-123    H    0.64225991    0.73312984    0.28752907    0.13010000
opls_144-124    H    0.26687000    0.90913008    0.28752907    0.13010000
opls_144-125    H    0.09087009    0.35774007    0.28752907    0.13010000
opls_144-126    H    0.44707008    0.32305987    0.18320101    0.11310000
opls_144-127    H    0.67694019    0.12401017    0.18320101    0.11310000
opls_144-128    H    0.87599005    0.55292996    0.18320101    0.11310000
opls_144-129    H    0.38231989    0.23583011    0.01703959    0.13010000
opls_144-130    H    0.76416996    0.14648981    0.01703959    0.12960000
opls_144-131    H    0.85351015    0.61768008    0.01703959    0.12950000
opls_144-132    H    0.61300983    0.75910995    0.97911086    0.13020000
opls_144-133    H    0.24088974    0.85389977    0.97911086    0.13020000
opls_144-134    H    0.14609991    0.38698989    0.97911086    0.13020000
opls_144-135    H    0.35300012    0.26098016    0.70248884    0.12990000
opls_144-136    H    0.73901997    0.09200995    0.70248884    0.13000000
opls_144-137    H    0.90798985    0.64699993    0.70248884    0.12980000
