#======================================================================
# Crystal Data Generated By AuToFF
#----------------------------------------------------------------------

data_AuToFF_phase_1

_cell_length_a                         51.3200
_cell_length_b                         42.3900
_cell_length_c                         3.8200
_cell_angle_alpha                      90.00
_cell_angle_beta                       96.60
_cell_angle_gamma                      90.00
_symmetry_space_group_name_H-M_alt     'P 1'
_symmetry_space_group_IT_number        1

loop_
_space_group_symop_operation_xyz
   'x, y, z'

loop_
   _atom_site_label
   _atom_site_type_symbol
   _atom_site_fract_x
   _atom_site_fract_y
   _atom_site_fract_z
   _atom_site_charge
opls_145-0    C    0.82592010    0.82866997    0.43347002    -0.13600000
opls_145-1    C    0.80165994    0.81327011    0.43014167    -0.13600000
opls_700-2    C    0.52209005    0.43284006    0.44575037    0.02390000
opls_700-3    C    0.52135999    0.46635008    0.42223060    0.02310000
opls_145-4    C    0.54221996    0.48363010    0.31056901    -0.13610000
opls_700-5    C    0.04683008    0.91384006    0.42722970    0.05960000
opls_145-6    C    0.06925998    0.86659000    0.24530132    -0.13250000
opls_700-7    C    0.09335997    0.87728993    0.41714980    0.10650000
opls_142-8    C    0.87942000    0.85969993    0.60881023    -0.09560000
opls_145-9    C    0.59398004    0.40630998    0.59148070    -0.12230000
opls_145-10    C    0.57101995    0.42387002    0.60445940    -0.13120000
opls_700-11    C    0.80027001    0.21800991    0.54820960    0.06170000
opls_145-12    C    0.84802994    0.21789998    0.67876079    -0.13490000
opls_141-13    C    0.87568994    0.17138995    0.54411176    -0.00350000
opls_145-14    C    0.95155999    0.11536990    0.75659081    -0.13450000
opls_700-15    C    0.22448005    0.76735999    0.49334068    -0.00200000
opls_145-16    C    0.24663004    0.78297995    0.39245997    -0.10100000
opls_145-17    C    0.77228992    0.73361005    0.41117038    -0.10100000
opls_700-18    C    0.14882000    0.18595990    0.45443094    0.06580000
opls_145-19    C    0.67525997    0.73189998    0.33701920    -0.13580000
opls_145-20    C    0.17210002    0.82964992    0.58733016    -0.13610000
opls_145-21    C    0.19655994    0.81466006    0.59564970    -0.13440000
opls_700-22    C    0.47564994    0.43284006    0.55950172    0.03060000
opls_700-23    C    0.47636003    0.46635008    0.58276060    0.02410000
opls_145-24    C    0.45548994    0.48363010    0.69446963    -0.13610000
opls_700-25    C    0.95094996    0.91379995    0.57889993    0.05960000
opls_145-26    C    0.92866007    0.86648007    0.76166106    -0.13530000
opls_700-27    C    0.90451999    0.87707997    0.59009192    0.10630000
opls_142-28    C    0.11854001    0.86007997    0.39901915    -0.09560000
opls_145-29    C    0.40378995    0.40610002    0.41566087    -0.12170000
opls_145-30    C    0.42671996    0.42374003    0.40206025    -0.13300000
opls_700-31    C    0.19844009    0.21641991    0.47422971    0.06710000
opls_145-32    C    0.15080000    0.21692994    0.32867067    -0.13590000
opls_141-33    C    0.12244011    0.17100000    0.46282163    -0.00340000
opls_145-34    C    0.04630001    0.11533994    0.24988932    -0.13230000
opls_700-35    C    0.77457007    0.76494999    0.53133071    0.00300000
opls_716-36    C    0.75179991    0.77918000    0.63224040    0.10270000
opls_716-37    C    0.22803008    0.73617009    0.61457093    0.10270000
opls_700-38    C    0.84949999    0.18674003    0.55728019    0.06560000
opls_145-39    C    0.32378995    0.73328993    0.67444159    -0.13550000
opls_700-40    C    0.99886003    0.01687992    0.50242972    0.00730000
opls_145-41    C    0.49888010    0.58312998    0.50261155    -0.18290000
opls_423-42    C    0.39678008    0.30945011    0.43997122    0.22460000
opls_423-43    C    0.60140990    0.30956995    0.56339929    0.22470000
opls_145-44    C    0.32592010    0.32866997    0.43347002    -0.13600000
opls_145-45    C    0.30165994    0.31327011    0.43014167    -0.13600000
opls_700-46    C    0.02209005    0.93284006    0.44575037    0.02390000
opls_700-47    C    0.02135999    0.96635008    0.42223060    0.02310000
opls_145-48    C    0.04221996    0.98363010    0.31056901    -0.13610000
opls_700-49    C    0.54683008    0.41384006    0.42722970    0.05960000
opls_145-50    C    0.56925998    0.36659000    0.24530132    -0.13250000
opls_700-51    C    0.59335997    0.37728993    0.41714980    0.10640000
opls_142-52    C    0.37942000    0.35969993    0.60881023    -0.09560000
opls_145-53    C    0.09398004    0.90630998    0.59148070    -0.12230000
opls_145-54    C    0.07101995    0.92387002    0.60445940    -0.13120000
opls_700-55    C    0.30027001    0.71800991    0.54820960    0.06170000
opls_145-56    C    0.34802994    0.71789998    0.67876079    -0.13490000
opls_141-57    C    0.37568994    0.67138995    0.54411176    -0.00350000
opls_145-58    C    0.45155999    0.61536990    0.75659081    -0.13450000
opls_700-59    C    0.72448005    0.26735999    0.49334068    -0.00200000
opls_145-60    C    0.74663004    0.28297995    0.39245997    -0.10100000
opls_145-61    C    0.27228992    0.23361005    0.41117038    -0.10100000
opls_700-62    C    0.64882000    0.68595990    0.45443094    0.06580000
opls_145-63    C    0.17525997    0.23189998    0.33701920    -0.13580000
opls_145-64    C    0.67210002    0.32964992    0.58733016    -0.13610000
opls_145-65    C    0.69655994    0.31466006    0.59564970    -0.13440000
opls_700-66    C    0.97564994    0.93284006    0.55950172    0.03060000
opls_700-67    C    0.97636003    0.96635008    0.58276060    0.02410000
opls_145-68    C    0.95548994    0.98363010    0.69446963    -0.13610000
opls_700-69    C    0.45094996    0.41379995    0.57889993    0.05960000
opls_145-70    C    0.42866007    0.36648007    0.76166106    -0.13540000
opls_700-71    C    0.40451999    0.37707997    0.59009192    0.10630000
opls_142-72    C    0.61854001    0.36007997    0.39901915    -0.09560000
opls_145-73    C    0.90378995    0.90610002    0.41566087    -0.12170000
opls_145-74    C    0.92671996    0.92374003    0.40206025    -0.13300000
opls_700-75    C    0.69844009    0.71641991    0.47422971    0.06710000
opls_145-76    C    0.65080000    0.71692994    0.32867067    -0.13600000
opls_141-77    C    0.62244011    0.67100000    0.46282163    -0.00340000
opls_145-78    C    0.54630001    0.61533994    0.24988932    -0.13230000
opls_700-79    C    0.27457007    0.26494999    0.53133071    0.00300000
opls_716-80    C    0.25179991    0.27918000    0.63224040    0.10270000
opls_716-81    C    0.72803008    0.23617009    0.61457093    0.10270000
opls_700-82    C    0.34949999    0.68674003    0.55728019    0.06560000
opls_145-83    C    0.82378995    0.23328993    0.67444159    -0.13550000
opls_700-84    C    0.49886003    0.51687992    0.50242972    0.00730000
opls_145-85    C    0.99888010    0.08312998    0.50261155    -0.18290000
opls_423-86    C    0.89678008    0.80945011    0.43997122    0.22460000
opls_423-87    C    0.10140990    0.80956995    0.56339929    0.22460000
opls_145-88    C    0.82592010    0.17133003    0.43347002    -0.13600000
opls_145-89    C    0.80165994    0.18672989    0.43014167    -0.13600000
opls_700-90    C    0.52209005    0.56715994    0.44575037    0.02390000
opls_700-91    C    0.52135999    0.53364992    0.42223060    0.02310000
opls_145-92    C    0.54221996    0.51636990    0.31056901    -0.13610000
opls_700-93    C    0.04683008    0.08615994    0.42722970    0.05960000
opls_145-94    C    0.06925998    0.13341000    0.24530132    -0.13240000
opls_700-95    C    0.09335997    0.12271007    0.41714980    0.10630000
opls_142-96    C    0.87942000    0.14030007    0.60881023    -0.09560000
opls_145-97    C    0.59398004    0.59369002    0.59148070    -0.12230000
opls_145-98    C    0.57101995    0.57612998    0.60445940    -0.13120000
opls_700-99    C    0.80027001    0.78199009    0.54820960    0.06170000
opls_145-100    C    0.84802994    0.78210002    0.67876079    -0.13490000
opls_141-101    C    0.87568994    0.82861005    0.54411176    -0.00350000
opls_145-102    C    0.95155999    0.88463010    0.75659081    -0.13450000
opls_700-103    C    0.22448005    0.23264001    0.49334068    -0.00200000
opls_145-104    C    0.24663004    0.21702005    0.39245997    -0.10100000
opls_145-105    C    0.77228992    0.26638995    0.41117038    -0.10100000
opls_700-106    C    0.14882000    0.81404010    0.45443094    0.06580000
opls_145-107    C    0.67525997    0.26810002    0.33701920    -0.13580000
opls_145-108    C    0.17210002    0.17035008    0.58733016    -0.13610000
opls_145-109    C    0.19655994    0.18533994    0.59564970    -0.13440000
opls_700-110    C    0.47564994    0.56715994    0.55950172    0.03060000
opls_700-111    C    0.47636003    0.53364992    0.58276060    0.02410000
opls_145-112    C    0.45548994    0.51636990    0.69446963    -0.13610000
opls_700-113    C    0.95094996    0.08620005    0.57889993    0.05960000
opls_145-114    C    0.92866007    0.13351993    0.76166106    -0.13540000
opls_700-115    C    0.90451999    0.12292003    0.59009192    0.10630000
opls_142-116    C    0.11854001    0.13992003    0.39901915    -0.09560000
opls_145-117    C    0.40378995    0.59389998    0.41566087    -0.12170000
opls_145-118    C    0.42671996    0.57625997    0.40206025    -0.13300000
opls_700-119    C    0.19844009    0.78358009    0.47422971    0.06710000
opls_145-120    C    0.15080000    0.78307006    0.32867067    -0.13600000
opls_141-121    C    0.12244011    0.82900000    0.46282163    -0.00340000
opls_145-122    C    0.04630001    0.88466006    0.24988932    -0.13230000
opls_700-123    C    0.77457007    0.23505001    0.53133071    0.00300000
opls_716-124    C    0.75179991    0.22082000    0.63224040    0.10270000
opls_716-125    C    0.22803008    0.26382991    0.61457093    0.10270000
opls_700-126    C    0.84949999    0.81325997    0.55728019    0.06560000
opls_145-127    C    0.32378995    0.26671007    0.67444159    -0.13550000
opls_700-128    C    0.99886003    0.98312008    0.50242972    0.00730000
opls_145-129    C    0.49888010    0.41687002    0.50261155    -0.18290000
opls_423-130    C    0.39678008    0.69054989    0.43997122    0.22460000
opls_423-131    C    0.60140990    0.69043005    0.56339929    0.22460000
opls_145-132    C    0.32592010    0.67133003    0.43347002    -0.13600000
opls_145-133    C    0.30165994    0.68672989    0.43014167    -0.13600000
opls_700-134    C    0.02209005    0.06715994    0.44575037    0.02390000
opls_700-135    C    0.02135999    0.03364992    0.42223060    0.02310000
opls_145-136    C    0.04221996    0.01636990    0.31056901    -0.13600000
opls_700-137    C    0.54683008    0.58615994    0.42722970    0.05960000
opls_145-138    C    0.56925998    0.63341000    0.24530132    -0.13250000
opls_700-139    C    0.59335997    0.62271007    0.41714980    0.10630000
opls_142-140    C    0.37942000    0.64030007    0.60881023    -0.09560000
opls_145-141    C    0.09398004    0.09369002    0.59148070    -0.12230000
opls_145-142    C    0.07101995    0.07612998    0.60445940    -0.13120000
opls_700-143    C    0.30027001    0.28199009    0.54820960    0.06170000
opls_145-144    C    0.34802994    0.28210002    0.67876079    -0.13490000
opls_141-145    C    0.37568994    0.32861005    0.54411176    -0.00350000
opls_145-146    C    0.45155999    0.38463010    0.75659081    -0.13440000
opls_700-147    C    0.72448005    0.73264001    0.49334068    -0.00200000
opls_145-148    C    0.74663004    0.71702005    0.39245997    -0.10100000
opls_145-149    C    0.27228992    0.76638995    0.41117038    -0.10100000
opls_700-150    C    0.64882000    0.31404010    0.45443094    0.06580000
opls_145-151    C    0.17525997    0.76810002    0.33701920    -0.13570000
opls_145-152    C    0.67210002    0.67035008    0.58733016    -0.13610000
opls_145-153    C    0.69655994    0.68533994    0.59564970    -0.13440000
opls_700-154    C    0.97564994    0.06715994    0.55950172    0.03060000
opls_700-155    C    0.97636003    0.03364992    0.58276060    0.02410000
opls_145-156    C    0.95548994    0.01636990    0.69446963    -0.13600000
opls_700-157    C    0.45094996    0.58620005    0.57889993    0.05960000
opls_145-158    C    0.42866007    0.63351993    0.76166106    -0.13540000
opls_700-159    C    0.40451999    0.62292003    0.59009192    0.10630000
opls_142-160    C    0.61854001    0.63992003    0.39901915    -0.09560000
opls_145-161    C    0.90378995    0.09389998    0.41566087    -0.12170000
opls_145-162    C    0.92671996    0.07625997    0.40206025    -0.13290000
opls_700-163    C    0.69844009    0.28358009    0.47422971    0.06710000
opls_145-164    C    0.65080000    0.28307006    0.32867067    -0.13590000
opls_141-165    C    0.62244011    0.32900000    0.46282163    -0.00340000
opls_145-166    C    0.54630001    0.38466006    0.24988932    -0.13230000
opls_700-167    C    0.27457007    0.73505001    0.53133071    0.00300000
opls_716-168    C    0.25179991    0.72082000    0.63224040    0.10270000
opls_716-169    C    0.72803008    0.76382991    0.61457093    0.10270000
opls_700-170    C    0.34949999    0.31325997    0.55728019    0.06560000
opls_145-171    C    0.82378995    0.76671007    0.67444159    -0.13550000
opls_700-172    C    0.49886003    0.48312008    0.50242972    0.00730000
opls_145-173    C    0.99888010    0.91687002    0.50261155    -0.18290000
opls_423-174    C    0.89678008    0.19054989    0.43997122    0.22460000
opls_423-175    C    0.10140990    0.19043005    0.56339929    0.22460000
opls_750-176    N    0.75080994    0.80835999    0.76442019    -0.37040000
opls_750-177    N    0.70925999    0.78148007    0.73437022    -0.36810000
opls_753-178    N    0.41361994    0.29415004    0.35527106    -0.31930000
opls_753-179    N    0.58458004    0.29407997    0.64541938    -0.31860000
opls_750-180    N    0.25080994    0.30835999    0.76442019    -0.37030000
opls_750-181    N    0.20925999    0.28148007    0.73437022    -0.36800000
opls_753-182    N    0.91361994    0.79415004    0.35527106    -0.31940000
opls_753-183    N    0.08458004    0.79407997    0.64541938    -0.31850000
opls_750-184    N    0.75080994    0.19164001    0.76442019    -0.37040000
opls_750-185    N    0.70925999    0.21851993    0.73437022    -0.36810000
opls_753-186    N    0.41361994    0.70584996    0.35527106    -0.31930000
opls_753-187    N    0.58458004    0.70592003    0.64541938    -0.31870000
opls_750-188    N    0.25080994    0.69164001    0.76442019    -0.37030000
opls_750-189    N    0.20925999    0.71851993    0.73437022    -0.36810000
opls_753-190    N    0.91361994    0.20584996    0.35527106    -0.31920000
opls_753-191    N    0.08458004    0.20592003    0.64541938    -0.31870000
opls_202-192    S    0.72049010    0.81751003    0.86656055    0.42330000
opls_202-193    S    0.22049010    0.31751003    0.86656055    0.42330000
opls_202-194    S    0.72049010    0.18248997    0.86656055    0.42330000
opls_202-195    S    0.22049010    0.68248997    0.86656055    0.42330000
opls_146-196    H    0.82625001    0.85227011    0.32745054    0.11540000
opls_146-197    H    0.78393994    0.82554989    0.32569018    0.11000000
opls_146-198    H    0.55867990    0.47205001    0.21491931    0.09650000
opls_146-199    H    0.06837004    0.84477990    0.09729938    0.11570000
opls_144-200    H    0.86292006    0.87377990    0.66849115    0.11700000
opls_146-201    H    0.61227000    0.41504010    0.72668051    0.11140000
opls_146-202    H    0.57223999    0.44533994    0.75606112    0.12300000
opls_146-203    H    0.86576001    0.23036990    0.77892207    0.11000000
opls_146-204    H    0.96964003    0.12384996    0.89914038    0.11560000
opls_146-205    H    0.24504009    0.80681010    0.29163987    0.11440000
opls_146-206    H    0.78893998    0.72161996    0.32180052    0.11380000
opls_146-207    H    0.67613006    0.75561996    0.23416994    0.11300000
opls_146-208    H    0.17132005    0.85307997    0.69684137    0.11630000
opls_146-209    H    0.21400007    0.82702996    0.70745096    0.11560000
opls_146-210    H    0.43905000    0.47204010    0.79036177    0.09440000
opls_146-211    H    0.92962005    0.84466997    0.90964983    0.11290000
opls_144-212    H    0.13502999    0.87431989    0.34216060    0.11790000
opls_146-213    H    0.38545997    0.41474994    0.28084055    0.11140000
opls_146-214    H    0.42542996    0.44520996    0.25016075    0.09820000
opls_146-215    H    0.13331000    0.22956995    0.22195020    0.11120000
opls_146-216    H    0.02825005    0.12389007    0.10712102    0.11600000
opls_146-217    H    0.32339997    0.75715994    0.77296109    0.11690000
opls_146-218    H    0.49889004    0.60858009    0.50268007    0.11230000
opls_146-219    H    0.32625001    0.35227011    0.32745054    0.11550000
opls_146-220    H    0.28393994    0.32554989    0.32569018    0.11000000
opls_146-221    H    0.05867990    0.97205001    0.21491931    0.09650000
opls_146-222    H    0.56837004    0.34477990    0.09729938    0.11560000
opls_144-223    H    0.36292006    0.37377990    0.66849115    0.11710000
opls_146-224    H    0.11227000    0.91504010    0.72668051    0.11140000
opls_146-225    H    0.07223999    0.94533994    0.75606112    0.12310000
opls_146-226    H    0.36576001    0.73036990    0.77892207    0.11000000
opls_146-227    H    0.46964003    0.62384996    0.89914038    0.11560000
opls_146-228    H    0.74504009    0.30681010    0.29163987    0.11440000
opls_146-229    H    0.28893998    0.22161996    0.32180052    0.11380000
opls_146-230    H    0.17613006    0.25561996    0.23416994    0.11300000
opls_146-231    H    0.67132005    0.35307997    0.69684137    0.11630000
opls_146-232    H    0.71400007    0.32702996    0.70745096    0.11560000
opls_146-233    H    0.93905000    0.97204010    0.79036177    0.09440000
opls_146-234    H    0.42962005    0.34466997    0.90964983    0.11290000
opls_144-235    H    0.63502999    0.37431989    0.34216060    0.11800000
opls_146-236    H    0.88545997    0.91474994    0.28084055    0.11140000
opls_146-237    H    0.92542996    0.94520996    0.25016075    0.09820000
opls_146-238    H    0.63331000    0.72956995    0.22195020    0.11120000
opls_146-239    H    0.52825005    0.62389007    0.10712102    0.11600000
opls_146-240    H    0.82339997    0.25715994    0.77296109    0.11680000
opls_146-241    H    0.99889004    0.10858009    0.50268007    0.11220000
opls_146-242    H    0.82625001    0.14772989    0.32745054    0.11540000
opls_146-243    H    0.78393994    0.17445011    0.32569018    0.11000000
opls_146-244    H    0.55867990    0.52794999    0.21491931    0.09650000
opls_146-245    H    0.06837004    0.15522010    0.09729938    0.11560000
opls_144-246    H    0.86292006    0.12622010    0.66849115    0.11700000
opls_146-247    H    0.61227000    0.58495990    0.72668051    0.11150000
opls_146-248    H    0.57223999    0.55466006    0.75606112    0.12300000
opls_146-249    H    0.86576001    0.76963010    0.77892207    0.11000000
opls_146-250    H    0.96964003    0.87615004    0.89914038    0.11560000
opls_146-251    H    0.24504009    0.19318990    0.29163987    0.11440000
opls_146-252    H    0.78893998    0.27838004    0.32180052    0.11380000
opls_146-253    H    0.67613006    0.24438004    0.23416994    0.11300000
opls_146-254    H    0.17132005    0.14692003    0.69684137    0.11640000
opls_146-255    H    0.21400007    0.17297004    0.70745096    0.11560000
opls_146-256    H    0.43905000    0.52795990    0.79036177    0.09440000
opls_146-257    H    0.92962005    0.15533003    0.90964983    0.11290000
opls_144-258    H    0.13502999    0.12568011    0.34216060    0.11790000
opls_146-259    H    0.38545997    0.58525006    0.28084055    0.11140000
opls_146-260    H    0.42542996    0.55479004    0.25016075    0.09820000
opls_146-261    H    0.13331000    0.77043005    0.22195020    0.11120000
opls_146-262    H    0.02825005    0.87610993    0.10712102    0.11600000
opls_146-263    H    0.32339997    0.24284006    0.77296109    0.11680000
opls_146-264    H    0.49889004    0.39141991    0.50268007    0.11230000
opls_146-265    H    0.32625001    0.64772989    0.32745054    0.11540000
opls_146-266    H    0.28393994    0.67445011    0.32569018    0.11000000
opls_146-267    H    0.05867990    0.02794999    0.21491931    0.09650000
opls_146-268    H    0.56837004    0.65522010    0.09729938    0.11560000
opls_144-269    H    0.36292006    0.62622010    0.66849115    0.11700000
opls_146-270    H    0.11227000    0.08495990    0.72668051    0.11150000
opls_146-271    H    0.07223999    0.05466006    0.75606112    0.12300000
opls_146-272    H    0.36576001    0.26963010    0.77892207    0.11000000
opls_146-273    H    0.46964003    0.37615004    0.89914038    0.11560000
opls_146-274    H    0.74504009    0.69318990    0.29163987    0.11440000
opls_146-275    H    0.28893998    0.77838004    0.32180052    0.11380000
opls_146-276    H    0.17613006    0.74438004    0.23416994    0.11310000
opls_146-277    H    0.67132005    0.64692003    0.69684137    0.11630000
opls_146-278    H    0.71400007    0.67297004    0.70745096    0.11560000
opls_146-279    H    0.93905000    0.02795990    0.79036177    0.09440000
opls_146-280    H    0.42962005    0.65533003    0.90964983    0.11290000
opls_144-281    H    0.63502999    0.62568011    0.34216060    0.11800000
opls_146-282    H    0.88545997    0.08525006    0.28084055    0.11140000
opls_146-283    H    0.92542996    0.05479004    0.25016075    0.09820000
opls_146-284    H    0.63331000    0.27043005    0.22195020    0.11120000
opls_146-285    H    0.52825005    0.37610993    0.10712102    0.11600000
opls_146-286    H    0.82339997    0.74284006    0.77296109    0.11680000
opls_146-287    H    0.99889004    0.89141991    0.50268007    0.11220000
