#======================================================================
# Crystal Data Generated By AuToFF
#----------------------------------------------------------------------

data_AuToFF_phase_1

_cell_length_a                         28.1475
_cell_length_b                         28.1475
_cell_length_c                         14.5171
_cell_angle_alpha                      90.00
_cell_angle_beta                       90.00
_cell_angle_gamma                      120.00
_symmetry_space_group_name_H-M_alt     'P 1'
_symmetry_space_group_IT_number        1

loop_
_space_group_symop_operation_xyz
   'x, y, z'

loop_
   _atom_site_label
   _atom_site_type_symbol
   _atom_site_fract_x
   _atom_site_fract_y
   _atom_site_fract_z
   _atom_site_charge
opls_145-0    C    0.90730017    0.40286998    0.36199999    -0.24190000
opls_145-1    C    0.59712977    0.50442989    0.36199999    -0.24190000
opls_145-2    C    0.49557007    0.09270013    0.36199999    -0.24190000
opls_145-3    C    0.09269983    0.59713002    0.36199999    -0.24190000
opls_145-4    C    0.40287023    0.49557011    0.36199999    -0.24190000
opls_145-5    C    0.50442993    0.90729987    0.36199999    -0.24190000
opls_145-6    C    0.40286994    0.90729987    0.63800966    -0.24190000
opls_145-7    C    0.50443018    0.59713002    0.63800966    -0.24190000
opls_145-8    C    0.09269988    0.49557011    0.63800966    -0.24190000
opls_145-9    C    0.59713006    0.09270013    0.63800966    -0.24190000
opls_145-10    C    0.49556982    0.40286998    0.63800966    -0.24190000
opls_145-11    C    0.90730012    0.50442989    0.63800966    -0.24190000
opls_145-12    C    0.09269983    0.59713002    0.63800966    -0.24190000
opls_145-13    C    0.40287023    0.49557011    0.63800966    -0.24190000
opls_145-14    C    0.50442993    0.90729987    0.63800966    -0.24190000
opls_145-15    C    0.90730017    0.40286998    0.63800966    -0.24190000
opls_145-16    C    0.59712977    0.50442989    0.63800966    -0.24190000
opls_145-17    C    0.49557007    0.09270013    0.63800966    -0.24190000
opls_145-18    C    0.59713006    0.09270013    0.36199999    -0.24190000
opls_145-19    C    0.49556982    0.40286998    0.36199999    -0.24190000
opls_145-20    C    0.90730012    0.50442989    0.36199999    -0.24190000
opls_145-21    C    0.40286994    0.90729987    0.36199999    -0.24190000
opls_145-22    C    0.50443018    0.59713002    0.36199999    -0.24190000
opls_145-23    C    0.09269988    0.49557011    0.36199999    -0.24190000
opls_700-24    C    0.95137002    0.45015989    0.40214988    0.05720000
opls_700-25    C    0.54984009    0.50120998    0.40214988    0.05720000
opls_700-26    C    0.49879024    0.04863013    0.40214988    0.05720000
opls_700-27    C    0.04862998    0.54984011    0.40214988    0.05720000
opls_700-28    C    0.45015991    0.49879002    0.40214988    0.05720000
opls_700-29    C    0.50120976    0.95136987    0.40214988    0.05720000
opls_700-30    C    0.45016011    0.95136987    0.59785012    0.05720000
opls_700-31    C    0.50121014    0.54984011    0.59785012    0.05720000
opls_700-32    C    0.04863011    0.49879002    0.59785012    0.05720000
opls_700-33    C    0.54983989    0.04863013    0.59785012    0.05720000
opls_700-34    C    0.49878986    0.45015989    0.59785012    0.05720000
opls_700-35    C    0.95136989    0.50120998    0.59785012    0.05720000
opls_700-36    C    0.04862998    0.54984011    0.59785012    0.05720000
opls_700-37    C    0.45015991    0.49879002    0.59785012    0.05720000
opls_700-38    C    0.50120976    0.95136987    0.59785012    0.05720000
opls_700-39    C    0.95137002    0.45015989    0.59785012    0.05720000
opls_700-40    C    0.54984009    0.50120998    0.59785012    0.05720000
opls_700-41    C    0.49879024    0.04863013    0.59785012    0.05720000
opls_700-42    C    0.54983989    0.04863013    0.40214988    0.05720000
opls_700-43    C    0.49878986    0.45015989    0.40214988    0.05720000
opls_700-44    C    0.95136989    0.50120998    0.40214988    0.05720000
opls_700-45    C    0.45016011    0.95136987    0.40214988    0.05720000
opls_700-46    C    0.50121014    0.54984011    0.40214988    0.05720000
opls_700-47    C    0.04863011    0.49879002    0.40214988    0.05720000
opls_166-48    C    0.86351009    0.40693989    0.32504977    0.15700000
opls_166-49    C    0.59305993    0.45657017    0.32504977    0.15140000
opls_166-50    C    0.54342997    0.13648993    0.32504977    0.15140000
opls_166-51    C    0.13648991    0.59306011    0.32504977    0.15700000
opls_166-52    C    0.40694007    0.54342983    0.32504977    0.15140000
opls_166-53    C    0.45657003    0.86351007    0.32504977    0.15700000
opls_166-54    C    0.40694004    0.86351007    0.67495023    0.15700000
opls_166-55    C    0.45657020    0.59306011    0.67495023    0.15140000
opls_166-56    C    0.13648976    0.54342983    0.67495023    0.15700000
opls_166-57    C    0.59305996    0.13648993    0.67495023    0.15700000
opls_166-58    C    0.54342980    0.40693989    0.67495023    0.15140000
opls_166-59    C    0.86351024    0.45657017    0.67495023    0.15700000
opls_166-60    C    0.13648991    0.59306011    0.67495023    0.15700000
opls_166-61    C    0.40694007    0.54342983    0.67495023    0.15140000
opls_166-62    C    0.45657003    0.86351007    0.67495023    0.15700000
opls_166-63    C    0.86351009    0.40693989    0.67495023    0.15700000
opls_166-64    C    0.59305993    0.45657017    0.67495023    0.15140000
opls_166-65    C    0.54342997    0.13648993    0.67495023    0.15140000
opls_166-66    C    0.59305996    0.13648993    0.32504977    0.15700000
opls_166-67    C    0.54342980    0.40693989    0.32504977    0.15140000
opls_166-68    C    0.86351024    0.45657017    0.32504977    0.15700000
opls_166-69    C    0.40694004    0.86351007    0.32504977    0.15700000
opls_166-70    C    0.45657020    0.59306011    0.32504977    0.15140000
opls_166-71    C    0.13648976    0.54342983    0.32504977    0.15700000
opls_701-72    C    0.00000000    0.44978986    0.44486020    -0.04880000
opls_701-73    C    0.55021014    0.55021014    0.44486020    -0.04880000
opls_701-74    C    0.44978986    0.00000000    0.44486020    -0.04880000
opls_701-75    C    1.00000000    0.55021014    0.44486020    -0.04880000
opls_701-76    C    0.44978986    0.44978986    0.44486020    -0.04880000
opls_701-77    C    0.55021014    0.00000000    0.44486020    -0.04880000
opls_701-78    C    0.44978986    1.00000000    0.55513980    -0.04880000
opls_701-79    C    0.55021014    0.55021014    0.55513980    -0.04880000
opls_701-80    C    0.00000000    0.44978986    0.55513980    -0.04880000
opls_701-81    C    0.55021014    1.00000000    0.55513980    -0.04880000
opls_701-82    C    0.44978986    0.44978986    0.55513980    -0.04880000
opls_701-83    C    1.00000000    0.55021014    0.55513980    -0.04880000
opls_145-84    C    0.27512990    0.63756987    0.24801992    -0.28100000
opls_145-85    C    0.36243002    0.63756987    0.24801992    -0.28100000
opls_145-86    C    0.36243008    0.72487011    0.24801992    -0.28100000
opls_145-87    C    0.72487010    0.36243013    0.24801992    -0.28100000
opls_145-88    C    0.63756998    0.36243013    0.24801992    -0.28100000
opls_145-89    C    0.63756992    0.27512989    0.24801992    -0.28100000
opls_145-90    C    0.63756992    0.27512989    0.75198008    -0.28100000
opls_145-91    C    0.63756998    0.36243013    0.75198008    -0.28100000
opls_145-92    C    0.72487010    0.36243013    0.75198008    -0.28100000
opls_145-93    C    0.36243008    0.72487011    0.75198008    -0.28100000
opls_145-94    C    0.36243002    0.63756987    0.75198008    -0.28100000
opls_145-95    C    0.27512990    0.63756987    0.75198008    -0.28100000
opls_145-96    C    0.30449004    0.60897013    0.24532999    -0.05760000
opls_145-97    C    0.39102979    0.69550981    0.24532999    -0.05570000
opls_145-98    C    0.30448996    0.69550981    0.24532999    -0.05760000
opls_145-99    C    0.69550996    0.39102987    0.24532999    -0.05570000
opls_145-100    C    0.60897021    0.30449019    0.24532999    -0.05760000
opls_145-101    C    0.69551004    0.30449019    0.24532999    -0.05760000
opls_145-102    C    0.60897021    0.30449019    0.75467001    -0.05760000
opls_145-103    C    0.69550996    0.39102987    0.75467001    -0.05570000
opls_145-104    C    0.69551004    0.30449019    0.75467001    -0.05760000
opls_145-105    C    0.39102979    0.69550981    0.75467001    -0.05570000
opls_145-106    C    0.30449004    0.60897013    0.75467001    -0.05760000
opls_145-107    C    0.30448996    0.69550981    0.75467001    -0.05760000
opls_146-108    H    0.90622017    0.36613001    0.36114031    0.21750000
opls_146-109    H    0.63386992    0.54009013    0.36114031    0.21750000
opls_146-110    H    0.45990991    0.09377986    0.36114031    0.21750000
opls_146-111    H    0.09377983    0.63386999    0.36114031    0.21750000
opls_146-112    H    0.36613008    0.45990987    0.36114031    0.21750000
opls_146-113    H    0.54009009    0.90622014    0.36114031    0.21740000
opls_146-114    H    0.36613006    0.90622014    0.63887002    0.21750000
opls_146-115    H    0.54009016    0.63386999    0.63887002    0.21740000
opls_146-116    H    0.09377979    0.45990987    0.63887002    0.21750000
opls_146-117    H    0.63386994    0.09377986    0.63887002    0.21750000
opls_146-118    H    0.45990984    0.36613001    0.63887002    0.21750000
opls_146-119    H    0.90622021    0.54009013    0.63887002    0.21750000
opls_146-120    H    0.09377983    0.63386999    0.63887002    0.21750000
opls_146-121    H    0.36613008    0.45990987    0.63887002    0.21750000
opls_146-122    H    0.54009009    0.90622014    0.63887002    0.21750000
opls_146-123    H    0.90622017    0.36613001    0.63887002    0.21750000
opls_146-124    H    0.63386992    0.54009013    0.63887002    0.21750000
opls_146-125    H    0.45990991    0.09377986    0.63887002    0.21750000
opls_146-126    H    0.63386994    0.09377986    0.36114031    0.21750000
opls_146-127    H    0.45990984    0.36613001    0.36114031    0.21750000
opls_146-128    H    0.90622021    0.54009013    0.36114031    0.21750000
opls_146-129    H    0.36613006    0.90622014    0.36114031    0.21750000
opls_146-130    H    0.54009016    0.63386999    0.36114031    0.21750000
opls_146-131    H    0.09377979    0.45990987    0.36114031    0.21750000
opls_146-132    H    0.28348992    0.71650999    0.24803025    0.21740000
opls_146-133    H    0.28349001    0.56698002    0.24803025    0.21740000
opls_146-134    H    0.43303002    0.71650999    0.24803025    0.21740000
opls_146-135    H    0.71651008    0.28349001    0.24803025    0.21720000
opls_146-136    H    0.71650994    0.43302983    0.24803025    0.21740000
opls_146-137    H    0.56697993    0.28349001    0.24803025    0.21740000
opls_146-138    H    0.71651008    0.28349001    0.75196975    0.21740000
opls_146-139    H    0.56697993    0.28349001    0.75196975    0.21740000
opls_146-140    H    0.71650994    0.43302983    0.75196975    0.21740000
opls_146-141    H    0.28348992    0.71650999    0.75196975    0.21740000
opls_146-142    H    0.43303002    0.71650999    0.75196975    0.21740000
opls_146-143    H    0.28349001    0.56698002    0.75196975    0.21740000
opls_702-144    H    0.99999996    0.41259002    0.42262986    0.05490000
opls_702-145    H    0.58740994    0.58740998    0.42262986    0.05490000
opls_702-146    H    0.41259011    0.00000000    0.42262986    0.05490000
opls_702-147    H    0.00000004    0.58740998    0.42262986    0.05490000
opls_702-148    H    0.41259006    0.41259002    0.42262986    0.05490000
opls_702-149    H    0.58740989    0.00000000    0.42262986    0.05490000
opls_702-150    H    0.41259011    1.00000000    0.57737014    0.05480000
opls_702-151    H    0.58740994    0.58740998    0.57737014    0.05490000
opls_702-152    H    0.99999996    0.41259002    0.57737014    0.05490000
opls_702-153    H    0.58740989    1.00000000    0.57737014    0.05490000
opls_702-154    H    0.41259006    0.41259002    0.57737014    0.05490000
opls_702-155    H    0.00000004    0.58740998    0.57737014    0.05490000
opls_167-156    O    0.18331023    0.54960013    0.28911973    -0.38500000
opls_167-157    O    0.45040002    0.63371984    0.28911973    -0.38420000
opls_167-158    O    0.36628010    0.81668988    0.28911973    -0.38420000
opls_167-159    O    0.81668977    0.45039987    0.28911973    -0.38510000
opls_167-160    O    0.54959998    0.36628016    0.28911973    -0.38420000
opls_167-161    O    0.63371990    0.18331012    0.28911973    -0.38420000
opls_167-162    O    0.54960012    0.18331997    0.71088027    -0.38420000
opls_167-163    O    0.63372005    0.45039987    0.71088027    -0.38420000
opls_167-164    O    0.81669013    0.36628016    0.71088027    -0.38420000
opls_167-165    O    0.45039983    0.81668988    0.71088027    -0.38500000
opls_167-166    O    0.36627995    0.54960013    0.71088027    -0.38430000
opls_167-167    O    0.18330987    0.63371984    0.71088027    -0.38420000
opls_167-168    O    0.81668977    0.45039987    0.71088027    -0.38500000
opls_167-169    O    0.54959998    0.36628016    0.71088027    -0.38420000
opls_167-170    O    0.63371990    0.18331012    0.71088027    -0.38420000
opls_167-171    O    0.18331023    0.54960013    0.71088027    -0.38500000
opls_167-172    O    0.45040002    0.63371984    0.71088027    -0.38420000
opls_167-173    O    0.36628010    0.81668988    0.71088027    -0.38420000
opls_167-174    O    0.45039983    0.81668988    0.28911973    -0.38500000
opls_167-175    O    0.36627995    0.54960013    0.28911973    -0.38420000
opls_167-176    O    0.18330987    0.63371984    0.28911973    -0.38420000
opls_167-177    O    0.54960012    0.18331997    0.28911973    -0.38420000
opls_167-178    O    0.63372005    0.45039987    0.28911973    -0.38420000
opls_167-179    O    0.81669013    0.36628016    0.28911973    -0.38420000
MOF2_B_2-180    B    0.78452016    0.39226015    0.27031019    0.50840000
MOF2_B_2-181    B    0.60773999    0.39226015    0.27031019    0.50840000
MOF2_B_2-182    B    0.60774005    0.21548010    0.27031019    0.50840000
MOF2_B_2-183    B    0.21547984    0.60773985    0.27031019    0.50830000
MOF2_B_2-184    B    0.39226001    0.60773985    0.27031019    0.50840000
MOF2_B_2-185    B    0.39225995    0.78451990    0.27031019    0.50840000
MOF2_B_2-186    B    0.39225995    0.78451990    0.72968981    0.50840000
MOF2_B_2-187    B    0.39226001    0.60773985    0.72968981    0.50840000
MOF2_B_2-188    B    0.21547984    0.60773985    0.72968981    0.50840000
MOF2_B_2-189    B    0.60774005    0.21548010    0.72968981    0.50840000
MOF2_B_2-190    B    0.60773999    0.39226015    0.72968981    0.50840000
MOF2_B_2-191    B    0.78452016    0.39226015    0.72968981    0.50840000
