#======================================================================
# Crystal Data Generated By AuToFF
#----------------------------------------------------------------------

data_AuToFF_phase_1

_cell_length_a                         22.2200
_cell_length_b                         22.2200
_cell_length_c                         30.0100
_cell_angle_alpha                      90.00
_cell_angle_beta                       90.00
_cell_angle_gamma                      90.00
_symmetry_space_group_name_H-M_alt     'P 1'
_symmetry_space_group_IT_number        1

loop_
_space_group_symop_operation_xyz
   'x, y, z'

loop_
   _atom_site_label
   _atom_site_type_symbol
   _atom_site_fract_x
   _atom_site_fract_y
   _atom_site_fract_z
   _atom_site_charge
opls_145-0    C    0.40586994    0.32914986    0.89249983    -0.17910000
opls_145-1    C    0.44086004    0.36391989    0.92136988    -0.13910000
opls_145-2    C    0.27077003    0.19357021    0.73605998    -0.13300000
opls_145-3    C    0.59413006    0.67085014    0.89249983    -0.17890000
opls_145-4    C    0.55913996    0.63608011    0.92136988    -0.13910000
opls_145-5    C    0.72922997    0.80642979    0.73605998    -0.13300000
opls_145-6    C    0.17085014    0.90586994    0.39249983    -0.17910000
opls_145-7    C    0.13608011    0.94086004    0.42136988    -0.13910000
opls_145-8    C    0.30642979    0.77077003    0.23605998    -0.13300000
opls_145-9    C    0.82914986    0.09413006    0.39249983    -0.17910000
opls_145-10    C    0.86391989    0.05913996    0.42136988    -0.13910000
opls_145-11    C    0.69357021    0.22922997    0.23605998    -0.13300000
opls_145-12    C    0.59413006    0.32914986    0.10749983    -0.17900000
opls_145-13    C    0.55913996    0.36391989    0.07863012    -0.13910000
opls_145-14    C    0.72922997    0.19357021    0.26394002    -0.13300000
opls_145-15    C    0.40586994    0.67085014    0.10749983    -0.17900000
opls_145-16    C    0.44086004    0.63608011    0.07863012    -0.13910000
opls_145-17    C    0.27077003    0.80642979    0.26394002    -0.13300000
opls_145-18    C    0.82914986    0.90586994    0.60750017    -0.17910000
opls_145-19    C    0.86391989    0.94086004    0.57863012    -0.13910000
opls_145-20    C    0.69357021    0.77077003    0.76394002    -0.13290000
opls_145-21    C    0.17085014    0.09413006    0.60750017    -0.17910000
opls_145-22    C    0.13608011    0.05913996    0.57863012    -0.13910000
opls_145-23    C    0.30642979    0.22922997    0.76394002    -0.13300000
opls_145-24    C    0.09413006    0.17085014    0.60750017    -0.17900000
opls_145-25    C    0.05913996    0.13608011    0.57863012    -0.13910000
opls_145-26    C    0.22922997    0.30642979    0.76394002    -0.13300000
opls_145-27    C    0.90586994    0.82914986    0.60750017    -0.17910000
opls_145-28    C    0.94086004    0.86391989    0.57863012    -0.13910000
opls_145-29    C    0.77077003    0.69357021    0.76394002    -0.13300000
opls_145-30    C    0.32914986    0.59413006    0.10749983    -0.17910000
opls_145-31    C    0.36391989    0.55913996    0.07863012    -0.13910000
opls_145-32    C    0.19357021    0.72922997    0.26394002    -0.13300000
opls_145-33    C    0.67085014    0.40586994    0.10749983    -0.17910000
opls_145-34    C    0.63608011    0.44086004    0.07863012    -0.13910000
opls_145-35    C    0.80642979    0.27077003    0.26394002    -0.13300000
opls_145-36    C    0.90586994    0.17085014    0.39249983    -0.17910000
opls_145-37    C    0.94086004    0.13608011    0.42136988    -0.13910000
opls_145-38    C    0.77077003    0.30642979    0.23605998    -0.13300000
opls_145-39    C    0.09413006    0.82914986    0.39249983    -0.17910000
opls_145-40    C    0.05913996    0.86391989    0.42136988    -0.13910000
opls_145-41    C    0.22922997    0.69357021    0.23605998    -0.13300000
opls_145-42    C    0.67085014    0.59413006    0.89249983    -0.17910000
opls_145-43    C    0.63608011    0.55913996    0.92136988    -0.13910000
opls_145-44    C    0.80642979    0.72922997    0.73605998    -0.13300000
opls_145-45    C    0.32914986    0.40586994    0.89249983    -0.17900000
opls_145-46    C    0.36391989    0.44086004    0.92136988    -0.13910000
opls_145-47    C    0.19357021    0.27077003    0.73605998    -0.13300000
opls_700-48    C    0.42010981    0.42010981    0.93767011    0.07220000
opls_142-49    C    0.32114986    0.32114986    0.80548984    0.08970000
opls_700-50    C    0.57989019    0.57989019    0.93767011    0.07220000
opls_142-51    C    0.67885014    0.67885014    0.80548984    0.08970000
opls_700-52    C    0.07989019    0.92010981    0.43767011    0.07220000
opls_142-53    C    0.17885014    0.82114986    0.30548984    0.08970000
opls_700-54    C    0.92010981    0.07989019    0.43767011    0.07220000
opls_142-55    C    0.82114986    0.17885014    0.30548984    0.08970000
opls_700-56    C    0.57989019    0.42010981    0.06232989    0.07220000
opls_142-57    C    0.67885014    0.32114986    0.19451016    0.08970000
opls_700-58    C    0.42010981    0.57989019    0.06232989    0.07220000
opls_142-59    C    0.32114986    0.67885014    0.19451016    0.08970000
opls_700-60    C    0.92010981    0.92010981    0.56232989    0.07220000
opls_142-61    C    0.82114986    0.82114986    0.69451016    0.08970000
opls_700-62    C    0.07989019    0.07989019    0.56232989    0.07220000
opls_142-63    C    0.17885014    0.17885014    0.69451016    0.08970000
opls_516-64    C    0.95957021    0.95957021    0.53120993    0.15510000
opls_145-65    C    0.65008011    0.65008011    0.87808997    0.20300000
opls_700-66    C    0.78572997    0.78572997    0.72198001    0.05830000
opls_516-67    C    0.04042979    0.04042979    0.53120993    0.15510000
opls_145-68    C    0.34991989    0.34991989    0.87808997    0.20300000
opls_700-69    C    0.21427003    0.21427003    0.72198001    0.05830000
opls_516-70    C    0.54042979    0.45957021    0.03120993    0.15510000
opls_145-71    C    0.84991989    0.15008011    0.37808997    0.20300000
opls_700-72    C    0.71427003    0.28572997    0.22198001    0.05830000
opls_516-73    C    0.45957021    0.54042979    0.03120993    0.15510000
opls_145-74    C    0.15008011    0.84991989    0.37808997    0.20310000
opls_700-75    C    0.28572997    0.71427003    0.22198001    0.05830000
opls_516-76    C    0.04042979    0.95957021    0.46879007    0.15510000
opls_145-77    C    0.34991989    0.65008011    0.12191003    0.20300000
opls_700-78    C    0.21427003    0.78572997    0.27801999    0.05830000
opls_516-79    C    0.95957021    0.04042979    0.46879007    0.15510000
opls_145-80    C    0.65008011    0.34991989    0.12191003    0.20310000
opls_700-81    C    0.78572997    0.21427003    0.27801999    0.05830000
opls_516-82    C    0.45957021    0.45957021    0.96879007    0.15520000
opls_145-83    C    0.15008011    0.15008011    0.62191003    0.20300000
opls_700-84    C    0.28572997    0.28572997    0.77801999    0.05830000
opls_516-85    C    0.54042979    0.54042979    0.96879007    0.15520000
opls_145-86    C    0.84991989    0.84991989    0.62191003    0.20300000
opls_700-87    C    0.71427003    0.71427003    0.77801999    0.05830000
opls_136-88    C    1.00000000    0.92048020    0.50000000    -0.27830000
opls_136-89    C    1.00000000    0.07951980    0.50000000    -0.27850000
opls_136-90    C    0.57951980    0.50000000    0.00000000    -0.27850000
opls_136-91    C    0.42048020    0.50000000    0.00000000    -0.27850000
opls_136-92    C    0.50000000    0.57951980    0.00000000    -0.27850000
opls_136-93    C    0.50000000    0.42048020    0.00000000    -0.27850000
opls_136-94    C    0.92048020    1.00000000    0.50000000    -0.27840000
opls_136-95    C    0.07951980    1.00000000    0.50000000    -0.27840000
opls_136-96    C    1.00000000    1.00000000    0.56035988    -0.27820000
opls_136-97    C    0.50000000    0.50000000    0.06035988    -0.27820000
opls_136-98    C    1.00000000    1.00000000    0.43964012    -0.27830000
opls_136-99    C    0.50000000    0.50000000    0.93964012    -0.27810000
opls_146-100    H    0.42276013    0.28616022    0.88094002    0.10610000
opls_146-101    H    0.48436994    0.34604995    0.92993002    0.09110000
opls_146-102    H    0.28727993    0.14995995    0.72547984    0.10630000
opls_140-103    H    0.96905986    0.89126013    0.48076008    0.11890000
opls_146-104    H    0.57723987    0.71383978    0.88094002    0.10610000
opls_146-105    H    0.51563006    0.65395005    0.92993002    0.09110000
opls_146-106    H    0.71272007    0.85004005    0.72547984    0.10640000
opls_140-107    H    0.03094014    0.10873987    0.48076008    0.11890000
opls_146-108    H    0.21383978    0.92276013    0.38094002    0.10610000
opls_146-109    H    0.15395005    0.98436994    0.42993002    0.09120000
opls_146-110    H    0.35004005    0.78727993    0.22547984    0.10630000
opls_140-111    H    0.60873987    0.46905986    0.98076008    0.11890000
opls_146-112    H    0.78616022    0.07723987    0.38094002    0.10610000
opls_146-113    H    0.84604995    0.01563006    0.42993002    0.09110000
opls_146-114    H    0.64995995    0.21272007    0.22547984    0.10630000
opls_140-115    H    0.39126013    0.53094014    0.98076008    0.11900000
opls_146-116    H    0.57723987    0.28616022    0.11905998    0.10620000
opls_146-117    H    0.51563006    0.34604995    0.07006998    0.09110000
opls_146-118    H    0.71272007    0.14995995    0.27452016    0.10630000
opls_140-119    H    0.03094014    0.89126013    0.51923992    0.11890000
opls_146-120    H    0.42276013    0.71383978    0.11905998    0.10610000
opls_146-121    H    0.48436994    0.65395005    0.07006998    0.09110000
opls_146-122    H    0.28727993    0.85004005    0.27452016    0.10630000
opls_140-123    H    0.96905986    0.10873987    0.51923992    0.11890000
opls_146-124    H    0.78616022    0.92276013    0.61905998    0.10610000
opls_146-125    H    0.84604995    0.98436994    0.57006998    0.09110000
opls_146-126    H    0.64995995    0.78727993    0.77452016    0.10630000
opls_140-127    H    0.39126013    0.46905986    0.01923992    0.11890000
opls_146-128    H    0.21383978    0.07723987    0.61905998    0.10610000
opls_146-129    H    0.15395005    0.01563006    0.57006998    0.09110000
opls_146-130    H    0.35004005    0.21272007    0.77452016    0.10630000
opls_140-131    H    0.60873987    0.53094014    0.01923992    0.11890000
opls_146-132    H    0.07723987    0.21383978    0.61905998    0.10610000
opls_146-133    H    0.01563006    0.15395005    0.57006998    0.09110000
opls_146-134    H    0.21272007    0.35004005    0.77452016    0.10640000
opls_140-135    H    0.53094014    0.60873987    0.01923992    0.11890000
opls_146-136    H    0.92276013    0.78616022    0.61905998    0.10610000
opls_146-137    H    0.98436994    0.84604995    0.57006998    0.09110000
opls_146-138    H    0.78727993    0.64995995    0.77452016    0.10630000
opls_140-139    H    0.46905986    0.39126013    0.01923992    0.11890000
opls_146-140    H    0.28616022    0.57723987    0.11905998    0.10610000
opls_146-141    H    0.34604995    0.51563006    0.07006998    0.09110000
opls_146-142    H    0.14995995    0.71272007    0.27452016    0.10630000
opls_140-143    H    0.89126013    0.03094014    0.51923992    0.11890000
opls_146-144    H    0.71383978    0.42276013    0.11905998    0.10610000
opls_146-145    H    0.65395005    0.48436994    0.07006998    0.09110000
opls_146-146    H    0.85004005    0.28727993    0.27452016    0.10630000
opls_140-147    H    0.10873987    0.96905986    0.51923992    0.11890000
opls_146-148    H    0.92276013    0.21383978    0.38094002    0.10620000
opls_146-149    H    0.98436994    0.15395005    0.42993002    0.09120000
opls_146-150    H    0.78727993    0.35004005    0.22547984    0.10640000
opls_140-151    H    0.46905986    0.60873987    0.98076008    0.11890000
opls_146-152    H    0.07723987    0.78616022    0.38094002    0.10620000
opls_146-153    H    0.01563006    0.84604995    0.42993002    0.09110000
opls_146-154    H    0.21272007    0.64995995    0.22547984    0.10640000
opls_140-155    H    0.53094014    0.39126013    0.98076008    0.11890000
opls_146-156    H    0.71383978    0.57723987    0.88094002    0.10610000
opls_146-157    H    0.65395005    0.51563006    0.92993002    0.09110000
opls_146-158    H    0.85004005    0.71272007    0.72547984    0.10630000
opls_140-159    H    0.10873987    0.03094014    0.48076008    0.11890000
opls_146-160    H    0.28616022    0.42276013    0.88094002    0.10610000
opls_146-161    H    0.34604995    0.48436994    0.92993002    0.09110000
opls_146-162    H    0.14995995    0.28727993    0.72547984    0.10630000
opls_140-163    H    0.89126013    0.96905986    0.48076008    0.11900000
opls_144-164    H    0.35263996    0.35263996    0.79070010    0.10450000
opls_144-165    H    0.64736004    0.64736004    0.79070010    0.10450000
opls_144-166    H    0.14736004    0.85263996    0.29070010    0.10450000
opls_144-167    H    0.85263996    0.14736004    0.29070010    0.10450000
opls_144-168    H    0.64736004    0.35263996    0.20929990    0.10450000
opls_144-169    H    0.35263996    0.64736004    0.20929990    0.10450000
opls_144-170    H    0.85263996    0.85263996    0.70929990    0.10450000
opls_144-171    H    0.14736004    0.14736004    0.70929990    0.10450000
opls_140-172    H    0.02854995    0.97145005    0.58233989    0.11300000
opls_140-173    H    0.97145005    0.02854995    0.58233989    0.11290000
opls_140-174    H    0.52854995    0.52854995    0.08233989    0.11290000
opls_140-175    H    0.47145005    0.47145005    0.08233989    0.11290000
opls_140-176    H    0.97145005    0.97145005    0.41766011    0.11290000
opls_140-177    H    0.02854995    0.02854995    0.41766011    0.11300000
opls_140-178    H    0.47145005    0.52854995    0.91766011    0.11290000
opls_140-179    H    0.52854995    0.47145005    0.91766011    0.11290000
opls_750-180    N    0.31618002    0.31618002    0.85020993    -0.32090000
opls_750-181    N    0.68381998    0.68381998    0.85020993    -0.32080000
opls_750-182    N    0.18381998    0.81618002    0.35020993    -0.32090000
opls_750-183    N    0.81618002    0.18381998    0.35020993    -0.32080000
opls_750-184    N    0.68381998    0.31618002    0.14979007    -0.32090000
opls_750-185    N    0.31618002    0.68381998    0.14979007    -0.32080000
opls_750-186    N    0.81618002    0.81618002    0.64979007    -0.32080000
opls_750-187    N    0.18381998    0.18381998    0.64979007    -0.32090000
