#======================================================================
# Crystal Data Generated By AuToFF
#----------------------------------------------------------------------

data_AuToFF_phase_1

_cell_length_a                         26.4165
_cell_length_b                         26.4165
_cell_length_c                         6.8000
_cell_angle_alpha                      90.00
_cell_angle_beta                       90.00
_cell_angle_gamma                      120.00
_symmetry_space_group_name_H-M_alt     'P 1'
_symmetry_space_group_IT_number        1

loop_
_space_group_symop_operation_xyz
   'x, y, z'

loop_
   _atom_site_label
   _atom_site_type_symbol
   _atom_site_fract_x
   _atom_site_fract_y
   _atom_site_fract_z
   _atom_site_charge
opls_700-0    C    0.30564998    0.70287000    0.25000000    -0.08730000
opls_700-1    C    0.26475990    0.63591997    0.25000000    0.02780000
opls_700-2    C    0.29571005    0.59987997    0.25000000    -0.08720000
opls_521-3    C    0.36270979    0.62791992    0.25000000    0.19940000
opls_521-4    C    0.37299006    0.73235985    0.25000000    0.20010000
opls_142-5    C    0.39234010    0.58377016    0.25000000    -0.11260000
opls_142-6    C    0.45317006    0.59551015    0.25000000    -0.07850000
opls_700-7    C    0.47812000    0.54711995    0.25000000    0.09890000
opls_145-8    C    0.43769011    0.48201016    0.25000000    -0.06840000
opls_700-9    C    0.45707017    0.43569013    0.25000000    0.14350000
opls_142-10    C    0.42066016    0.80589019    0.25000000    -0.11430000
opls_142-11    C    0.41082011    0.85690001    0.25000000    -0.07770000
opls_142-12    C    0.19099985    0.60819998    0.25000000    -0.07860000
opls_142-13    C    0.14095015    0.54774021    0.25000000    -0.07640000
opls_700-14    C    0.93159009    0.47750003    0.25000000    0.09760000
opls_700-15    C    0.54380021    0.06951021    0.25000000    0.09890000
opls_145-16    C    0.95622997    0.43735991    0.25000000    -0.06740000
opls_700-17    C    0.97823997    0.54260981    0.25000000    0.14330000
opls_700-18    C    0.56469992    0.02441016    0.25000000    0.14350000
opls_145-19    C    0.47871994    0.04203020    0.25000000    -0.06930000
opls_148-20    C    0.59396991    0.63215992    0.25000000    -0.40650000
opls_423-21    C    0.25963006    0.53333995    0.25000000    0.24930000
opls_423-22    C    0.27651014    0.74016014    0.25000000    0.24930000
opls_148-23    C    0.96073004    0.59324022    0.25000000    -0.40650000
opls_148-24    C    0.63352999    0.04458994    0.25000000    -0.40650000
opls_700-25    C    0.69435002    0.29713000    0.25000000    -0.08730000
opls_700-26    C    0.73524010    0.36408003    0.25000000    0.02780000
opls_700-27    C    0.70428995    0.40012003    0.25000000    -0.08720000
opls_521-28    C    0.63729021    0.37208008    0.25000000    0.19940000
opls_521-29    C    0.62700994    0.26764015    0.25000000    0.20000000
opls_142-30    C    0.60765990    0.41622984    0.25000000    -0.11260000
opls_142-31    C    0.54682994    0.40448985    0.25000000    -0.07850000
opls_700-32    C    0.52188000    0.45288005    0.25000000    0.09890000
opls_145-33    C    0.56230989    0.51798984    0.25000000    -0.06840000
opls_700-34    C    0.54292983    0.56430987    0.25000000    0.14350000
opls_142-35    C    0.57933984    0.19410981    0.25000000    -0.11430000
opls_142-36    C    0.58917989    0.14309999    0.25000000    -0.07770000
opls_142-37    C    0.80900015    0.39180002    0.25000000    -0.07860000
opls_142-38    C    0.85904985    0.45225979    0.25000000    -0.07640000
opls_700-39    C    0.06840991    0.52249997    0.25000000    0.09760000
opls_700-40    C    0.45619979    0.93048979    0.25000000    0.09890000
opls_145-41    C    0.04377003    0.56264009    0.25000000    -0.06750000
opls_700-42    C    0.02176003    0.45739019    0.25000000    0.14330000
opls_700-43    C    0.43530008    0.97558984    0.25000000    0.14350000
opls_145-44    C    0.52128006    0.95796980    0.25000000    -0.06940000
opls_148-45    C    0.40603009    0.36784008    0.25000000    -0.40650000
opls_423-46    C    0.74036994    0.46666005    0.25000000    0.24930000
opls_423-47    C    0.72348986    0.25983986    0.25000000    0.24930000
opls_148-48    C    0.03926996    0.40675978    0.25000000    -0.40650000
opls_148-49    C    0.36647001    0.95541006    0.25000000    -0.40650000
opls_700-50    C    0.63895010    0.36957018    0.75000000    -0.08730000
opls_700-51    C    0.02765014    0.96383018    0.75000000    -0.08730000
opls_700-52    C    0.59806002    0.30262014    0.75000000    0.02780000
opls_700-53    C    0.06854022    0.03078021    0.75000000    0.02780000
opls_700-54    C    0.62901017    0.26658015    0.75000000    -0.08720000
opls_700-55    C    0.03759007    0.06682021    0.75000000    -0.08720000
opls_521-56    C    0.69600991    0.29462010    0.75000000    0.19940000
opls_521-57    C    0.97058973    0.03877982    0.75000000    0.19940000
opls_521-58    C    0.70629018    0.39906003    0.75000000    0.20000000
opls_521-59    C    0.96030984    0.93433989    0.75000000    0.20000000
opls_142-60    C    0.72564000    0.25046990    0.75000000    -0.11260000
opls_142-61    C    0.94096002    0.08293002    0.75000000    -0.11260000
opls_142-62    C    0.78646996    0.26220989    0.75000000    -0.07850000
opls_142-63    C    0.88013006    0.07119003    0.75000000    -0.07840000
opls_700-64    C    0.81142012    0.21382013    0.75000000    0.09890000
opls_700-65    C    0.85517990    0.11957979    0.75000000    0.09890000
opls_145-66    C    0.77099001    0.14870990    0.75000000    -0.06840000
opls_145-67    C    0.89561001    0.18469002    0.75000000    -0.06840000
opls_700-68    C    0.79037007    0.10238987    0.75000000    0.14350000
opls_700-69    C    0.87622995    0.23101005    0.75000000    0.14350000
opls_142-70    C    0.75396006    0.47258993    0.75000000    -0.11430000
opls_142-71    C    0.91263996    0.86080999    0.75000000    -0.11430000
opls_142-72    C    0.74412023    0.52360019    0.75000000    -0.07760000
opls_142-73    C    0.92248001    0.80980017    0.75000000    -0.07770000
opls_142-74    C    0.52429997    0.27490016    0.75000000    -0.07860000
opls_142-75    C    0.14230027    0.05850019    0.75000000    -0.07860000
opls_142-76    C    0.47425005    0.21443995    0.75000000    -0.07630000
opls_142-77    C    0.19234997    0.11895997    0.75000000    -0.07640000
opls_700-78    C    0.26489021    0.14420020    0.75000000    0.09760000
opls_700-79    C    0.40171003    0.18920015    0.75000000    0.09760000
opls_700-80    C    0.87710011    0.73620995    0.75000000    0.09890000
opls_700-81    C    0.78949991    0.59718997    0.75000000    0.09890000
opls_145-82    C    0.28953009    0.10406008    0.75000000    -0.06750000
opls_145-83    C    0.37706993    0.22933984    0.75000000    -0.06750000
opls_700-84    C    0.31154009    0.20930999    0.75000000    0.14330000
opls_700-85    C    0.35505994    0.12408993    0.75000000    0.14330000
opls_700-86    C    0.89799982    0.69110990    0.75000000    0.14350000
opls_700-87    C    0.76860020    0.64229002    0.75000000    0.14350000
opls_145-88    C    0.81201985    0.70872994    0.75000000    -0.06940000
opls_145-89    C    0.85458018    0.62466998    0.75000000    -0.06940000
opls_148-90    C    0.92727003    0.29886010    0.75000000    -0.40680000
opls_148-91    C    0.73932999    0.03453982    0.75000000    -0.40680000
opls_423-92    C    0.59293018    0.20004013    0.75000000    0.24940000
opls_423-93    C    0.07366985    0.13335979    0.75000000    0.24950000
opls_423-94    C    0.60981004    0.40685988    0.75000000    0.24930000
opls_423-95    C    0.05678998    0.92654004    0.75000000    0.24940000
opls_148-96    C    0.29402994    0.25993996    0.75000000    -0.40650000
opls_148-97    C    0.37257008    0.07345996    0.75000000    -0.40640000
opls_148-98    C    0.96683011    0.71129011    0.75000000    -0.40650000
opls_148-99    C    0.69976991    0.62210981    0.75000000    -0.40650000
opls_520-100    N    0.39722003    0.69239021    0.25000000    -0.30760000
opls_262-101    N    0.25170984    0.76880986    0.25000000    -0.25930000
opls_262-102    N    0.23188011    0.47986000    0.25000000    -0.25930000
opls_520-103    N    0.60277997    0.30760979    0.25000000    -0.30770000
opls_262-104    N    0.74829016    0.23119014    0.25000000    -0.25930000
opls_262-105    N    0.76811989    0.52014000    0.25000000    -0.25930000
opls_520-106    N    0.73051993    0.35908995    0.75000000    -0.30760000
opls_520-107    N    0.93608009    0.97430997    0.75000000    -0.30770000
opls_262-108    N    0.58500996    0.43551004    0.75000000    -0.25930000
opls_262-109    N    0.08159007    0.89788988    0.75000000    -0.25930000
opls_262-110    N    0.56518023    0.14656018    0.75000000    -0.25930000
opls_262-111    N    0.10142001    0.18684018    0.75000000    -0.25930000
opls_144-112    H    0.35918998    0.53523003    0.25000000    0.04580000
opls_144-113    H    0.48603004    0.64409005    0.25000000    0.04580000
opls_146-114    H    0.38890005    0.46630992    0.25000000    0.04450000
opls_144-115    H    0.46858026    0.81771017    0.25000000    0.04400000
opls_144-116    H    0.36385995    0.84381021    0.25000000    0.11230000
opls_144-117    H    0.17666991    0.64221003    0.25000000    0.04480000
opls_144-118    H    0.15372009    0.51349019    0.25000000    0.10120000
opls_146-119    H    0.92322990    0.38849981    0.25000000    0.04400000
opls_146-120    H    0.46121994    0.07378998    0.25000000    0.04420000
opls_702-121    H    0.64001011    0.67460013    0.25000000    0.08690000
opls_702-122    H    0.63634995    0.62856990    0.25000000    0.08690000
opls_702-123    H    0.57574018    0.66391008    0.25000000    0.08800000
opls_702-124    H    0.33436010    0.90551008    0.25000000    0.08800000
opls_702-125    H    0.36786997    0.00037985    0.25000000    0.08690000
opls_702-126    H    0.32598007    0.96231995    0.25000000    0.08690000
opls_702-127    H    0.96898983    0.64115003    0.25000000    0.08690000
opls_702-128    H    0.91110013    0.57698004    0.25000000    0.08800000
opls_702-129    H    0.00659981    0.63574993    0.25000000    0.08700000
opls_144-130    H    0.64081002    0.46476997    0.25000000    0.04580000
opls_144-131    H    0.51396996    0.35590995    0.25000000    0.04580000
opls_146-132    H    0.61109995    0.53369008    0.25000000    0.04450000
opls_144-133    H    0.53141974    0.18228983    0.25000000    0.04400000
opls_144-134    H    0.63614005    0.15618979    0.25000000    0.11230000
opls_144-135    H    0.82333009    0.35778997    0.25000000    0.04470000
opls_144-136    H    0.84627991    0.48650981    0.25000000    0.10120000
opls_146-137    H    0.07677010    0.61150019    0.25000000    0.04400000
opls_146-138    H    0.53878006    0.92621002    0.25000000    0.04420000
opls_702-139    H    0.35998989    0.32539987    0.25000000    0.08690000
opls_702-140    H    0.36365005    0.37143010    0.25000000    0.08690000
opls_702-141    H    0.42425982    0.33608992    0.25000000    0.08800000
opls_702-142    H    0.66563990    0.09448992    0.25000000    0.08800000
opls_702-143    H    0.63213003    0.99962015    0.25000000    0.08690000
opls_702-144    H    0.67401993    0.03768005    0.25000000    0.08690000
opls_702-145    H    0.03101017    0.35884997    0.25000000    0.08690000
opls_702-146    H    0.08889987    0.42301996    0.25000000    0.08800000
opls_702-147    H    0.99340019    0.36425007    0.25000000    0.08690000
opls_144-148    H    0.69249010    0.20193021    0.75000000    0.04580000
opls_144-149    H    0.97411014    0.13147015    0.75000000    0.04590000
opls_144-150    H    0.81932994    0.31078979    0.75000000    0.04580000
opls_144-151    H    0.84727009    0.02261013    0.75000000    0.04580000
opls_146-152    H    0.72220017    0.13301010    0.75000000    0.04450000
opls_146-153    H    0.94439986    0.20038982    0.75000000    0.04450000
opls_144-154    H    0.80187978    0.48440991    0.75000000    0.04400000
opls_144-155    H    0.86471986    0.84899001    0.75000000    0.04400000
opls_144-156    H    0.69715985    0.51050995    0.75000000    0.11230000
opls_144-157    H    0.96943980    0.82288997    0.75000000    0.11230000
opls_144-158    H    0.50997003    0.30891021    0.75000000    0.04470000
opls_144-159    H    0.15663021    0.02449015    0.75000000    0.04470000
opls_144-160    H    0.48702000    0.18018993    0.75000000    0.10120000
opls_144-161    H    0.17958003    0.15320999    0.75000000    0.10130000
opls_146-162    H    0.25653002    0.05519999    0.75000000    0.04400000
opls_146-163    H    0.41007000    0.27819993    0.75000000    0.04400000
opls_146-164    H    0.79452006    0.74049016    0.75000000    0.04420000
opls_146-165    H    0.87208018    0.59291020    0.75000000    0.04420000
opls_702-166    H    0.97331002    0.34129987    0.75000000    0.08690000
opls_702-167    H    0.69329001    0.99210005    0.75000000    0.08690000
opls_702-168    H    0.96965007    0.29527008    0.75000000    0.08690000
opls_702-169    H    0.69694995    0.03812984    0.75000000    0.08690000
opls_702-170    H    0.90904008    0.33060983    0.75000000    0.08800000
opls_702-171    H    0.75755994    0.00279009    0.75000000    0.08800000
opls_702-172    H    0.66766000    0.57220982    0.75000000    0.08800000
opls_702-173    H    0.99894002    0.76119010    0.75000000    0.08800000
opls_702-174    H    0.70117009    0.66708003    0.75000000    0.08700000
opls_702-175    H    0.96542993    0.66631989    0.75000000    0.08690000
opls_702-176    H    0.65928019    0.62902013    0.75000000    0.08690000
opls_702-177    H    0.00731983    0.70437979    0.75000000    0.08690000
opls_702-178    H    0.30228995    0.30785021    0.75000000    0.08690000
opls_702-179    H    0.36430991    0.02555015    0.75000000    0.08690000
opls_702-180    H    0.24440025    0.24368021    0.75000000    0.08800000
opls_702-181    H    0.42219999    0.08972014    0.75000000    0.08800000
opls_702-182    H    0.33989994    0.30245011    0.75000000    0.08690000
opls_702-183    H    0.32670009    0.03094981    0.75000000    0.08690000
