#======================================================================
# Crystal Data Generated By AuToFF
#----------------------------------------------------------------------

data_AuToFF_phase_1

_cell_length_a                         41.0914
_cell_length_b                         41.0914
_cell_length_c                         6.6224
_cell_angle_alpha                      90.00
_cell_angle_beta                       90.00
_cell_angle_gamma                      120.00
_symmetry_space_group_name_H-M_alt     'P 1'
_symmetry_space_group_IT_number        1

loop_
_space_group_symop_operation_xyz
   'x, y, z'

loop_
   _atom_site_label
   _atom_site_type_symbol
   _atom_site_fract_x
   _atom_site_fract_y
   _atom_site_fract_z
   _atom_site_charge
opls_145-0    C    0.83819005    0.46632009    0.88441955    -0.09650000
opls_145-1    C    0.82995998    0.42896994    0.88695035    -0.09690000
opls_145-2    C    0.85867999    0.42043995    0.86322934    -0.12790000
opls_700-3    C    0.89600994    0.44937982    0.83804965    0.08900000
opls_700-4    C    0.90436007    0.48715991    0.83796056    0.08900000
opls_145-5    C    0.87524002    0.49537995    0.85970041    -0.12900000
opls_145-6    C    0.92493009    0.44116006    0.80857997    -0.17340000
opls_700-7    C    0.96124989    0.46978997    0.75507973    0.02860000
opls_700-8    C    0.96954002    0.50754984    0.75764073    0.03030000
opls_145-9    C    0.94151992    0.51601997    0.81229011    -0.17290000
opls_700-10    C    0.99209007    0.46245005    0.69405956    -0.03010000
opls_700-11    C    0.01293010    0.56479000    0.55785063    -0.02790000
opls_700-12    C    0.98050008    0.56492994    0.45748973    0.06710000
opls_700-13    C    0.05068984    0.59493989    0.49677005    0.07000000
opls_145-14    C    0.04789003    0.46769000    0.36336978    -0.13330000
opls_145-15    C    0.08184005    0.47006002    0.30819944    -0.16930000
opls_145-16    C    0.08669991    0.43872007    0.33107031    0.18600000
opls_145-17    C    0.05689987    0.40508989    0.40424015    -0.16530000
opls_145-18    C    0.02378985    0.40329987    0.46956994    -0.12390000
opls_145-19    C    0.92856990    0.41142999    0.34946998    -0.13290000
opls_145-20    C    0.89278004    0.38246989    0.29432985    -0.17150000
opls_145-21    C    0.87801995    0.34667006    0.38018996    0.18750000
opls_145-22    C    0.89859000    0.34068010    0.53052066    -0.17200000
opls_145-23    C    0.93380996    0.36966998    0.58889979    -0.12130000
opls_145-24    C    0.79092988    0.21494990    0.23568948    -0.12190000
opls_145-25    C    0.75490006    0.18367007    0.22845041    -0.12040000
opls_700-26    C    0.72314015    0.18783011    0.24964967    0.07340000
opls_145-27    C    0.72812985    0.22410991    0.26674015    -0.13360000
opls_145-28    C    0.76435998    0.25556986    0.27365004    -0.13290000
opls_700-29    C    0.79603992    0.25102989    0.26330031    0.06040000
opls_142-30    C    0.83444983    0.28246989    0.29847940    0.06910000
opls_142-31    C    0.68527014    0.15455008    0.27032949    0.06880000
opls_145-32    C    0.53368002    0.37186999    0.88441955    -0.09650000
opls_145-33    C    0.57102995    0.40098999    0.88695035    -0.09690000
opls_145-34    C    0.57955981    0.43823982    0.86322934    -0.12790000
opls_700-35    C    0.55061992    0.44662987    0.83804965    0.08900000
opls_700-36    C    0.51284002    0.41719993    0.83796056    0.08900000
opls_145-37    C    0.50461988    0.37985989    0.85970041    -0.12900000
opls_145-38    C    0.55883980    0.48376983    0.80857997    -0.17350000
opls_700-39    C    0.53020991    0.49145989    0.75507973    0.02860000
opls_700-40    C    0.49244997    0.46199004    0.75764073    0.03030000
opls_145-41    C    0.48398002    0.42550005    0.81229011    -0.17290000
opls_700-42    C    0.53754999    0.52963986    0.69405956    -0.03010000
opls_700-43    C    0.43521005    0.44814001    0.55785063    -0.02790000
opls_700-44    C    0.43507007    0.41557008    0.45748973    0.06710000
opls_700-45    C    0.40506000    0.45574998    0.49677005    0.07000000
opls_145-46    C    0.53231000    0.58019991    0.36336978    -0.13330000
opls_145-47    C    0.52993997    0.61177985    0.30819944    -0.16930000
opls_145-48    C    0.56127996    0.64797983    0.33107031    0.18600000
opls_145-49    C    0.59490994    0.65180997    0.40424015    -0.16530000
opls_145-50    C    0.59670006    0.62048997    0.46956994    -0.12390000
opls_145-51    C    0.58856999    0.51714007    0.34946998    -0.13290000
opls_145-52    C    0.61753004    0.51030990    0.29432985    -0.17150000
opls_145-53    C    0.65333012    0.53135007    0.38018996    0.18750000
opls_145-54    C    0.65931990    0.55790981    0.53052066    -0.17200000
opls_145-55    C    0.63032999    0.56414003    0.58889979    -0.12140000
opls_145-56    C    0.78504998    0.57598001    0.23568948    -0.12190000
opls_145-57    C    0.81632987    0.57122986    0.22845041    -0.12040000
opls_700-58    C    0.81216993    0.53531004    0.24964967    0.07340000
opls_145-59    C    0.77588984    0.50401982    0.26674015    -0.13360000
opls_145-60    C    0.74442986    0.50878992    0.27365004    -0.13290000
opls_700-61    C    0.74896984    0.54500986    0.26330031    0.06030000
opls_142-62    C    0.71753007    0.55197998    0.29847940    0.06910000
opls_142-63    C    0.84545002    0.53072005    0.27032949    0.06880000
opls_145-64    C    0.62812992    0.16180992    0.88441955    -0.09650000
opls_145-65    C    0.59901007    0.17004007    0.88695035    -0.09690000
opls_145-66    C    0.56176006    0.14131995    0.86322934    -0.12790000
opls_700-67    C    0.55337000    0.10399003    0.83804965    0.08900000
opls_700-68    C    0.58280001    0.09563988    0.83796056    0.08900000
opls_145-69    C    0.62013996    0.12475988    0.85970041    -0.12900000
opls_145-70    C    0.51623011    0.07507011    0.80857997    -0.17350000
opls_700-71    C    0.50853995    0.03875013    0.75507973    0.02860000
opls_700-72    C    0.53801001    0.03046012    0.75764073    0.03030000
opls_145-73    C    0.57450007    0.05847997    0.81229011    -0.17290000
opls_700-74    C    0.47035994    0.00791009    0.69405956    -0.03010000
opls_700-75    C    0.55186009    0.98706999    0.55785063    -0.02790000
opls_700-76    C    0.58443009    0.01949997    0.45748973    0.06710000
opls_700-77    C    0.54425002    0.94930984    0.49677005    0.07000000
opls_145-78    C    0.41979982    0.95210981    0.36336978    -0.13330000
opls_145-79    C    0.38821984    0.91815985    0.30819944    -0.16930000
opls_145-80    C    0.35201999    0.91329982    0.33107031    0.18600000
opls_145-81    C    0.34818981    0.94309985    0.40424015    -0.16530000
opls_145-82    C    0.37950995    0.97620988    0.46956994    -0.12390000
opls_145-83    C    0.48285987    0.07142994    0.34946998    -0.13290000
opls_145-84    C    0.48969002    0.10721993    0.29432985    -0.17150000
opls_145-85    C    0.46864993    0.12197987    0.38018996    0.18750000
opls_145-86    C    0.44209011    0.10141010    0.53052066    -0.17200000
opls_145-87    C    0.43586005    0.06618998    0.58889979    -0.12140000
opls_145-88    C    0.42402014    0.20907009    0.23568948    -0.12190000
opls_145-89    C    0.42877007    0.24510007    0.22845041    -0.12040000
opls_700-90    C    0.46468992    0.27685985    0.24964967    0.06730000
opls_145-91    C    0.49597992    0.27186999    0.26674015    -0.13360000
opls_145-92    C    0.49121002    0.23563994    0.27365004    -0.13290000
opls_700-93    C    0.45499010    0.20395996    0.26330031    0.06030000
opls_142-94    C    0.44801996    0.16554985    0.29847940    0.06910000
opls_142-95    C    0.46927984    0.31472987    0.27032949    0.06880000
opls_145-96    C    0.16180995    0.53367991    0.88441955    -0.09650000
opls_145-97    C    0.17004002    0.57103006    0.88695035    -0.09690000
opls_145-98    C    0.14132001    0.57956005    0.86322934    -0.12790000
opls_700-99    C    0.10398992    0.55061990    0.83804965    0.08900000
opls_700-100    C    0.09563979    0.51283981    0.83796056    0.08900000
opls_145-101    C    0.12475998    0.50462005    0.85970041    -0.12900000
opls_145-102    C    0.07506991    0.55883994    0.80857997    -0.17350000
opls_700-103    C    0.03875011    0.53021003    0.75507973    0.02860000
opls_700-104    C    0.03045984    0.49244988    0.75764073    0.03030000
opls_145-105    C    0.05848008    0.48398003    0.81229011    -0.17290000
opls_700-106    C    0.00790993    0.53754995    0.69405956    -0.03010000
opls_700-107    C    0.98706990    0.43521000    0.55785063    -0.02790000
opls_700-108    C    0.01949992    0.43507006    0.45748973    0.06710000
opls_700-109    C    0.94931002    0.40505983    0.49677005    0.07000000
opls_145-110    C    0.95210997    0.53231000    0.36336978    -0.13330000
opls_145-111    C    0.91815995    0.52993998    0.30819944    -0.16930000
opls_145-112    C    0.91330009    0.56127993    0.33107031    0.18600000
opls_145-113    C    0.94309999    0.59490982    0.40424015    -0.16530000
opls_145-114    C    0.97621001    0.59669984    0.46956994    -0.12390000
opls_145-115    C    0.07143010    0.58857001    0.34946998    -0.13290000
opls_145-116    C    0.10721982    0.61752983    0.29432985    -0.17150000
opls_145-117    C    0.12198005    0.65332994    0.38018996    0.18750000
opls_145-118    C    0.10141000    0.65931990    0.53052066    -0.17200000
opls_145-119    C    0.06619004    0.63033002    0.58889979    -0.12140000
opls_145-120    C    0.20906998    0.78504982    0.23568948    -0.12190000
opls_145-121    C    0.24509994    0.81632993    0.22845041    -0.12040000
opls_700-122    C    0.27685985    0.81216989    0.24964967    0.07340000
opls_145-123    C    0.27187001    0.77588981    0.26674015    -0.13360000
opls_145-124    C    0.23563988    0.74442986    0.27365004    -0.13290000
opls_700-125    C    0.20395994    0.74896983    0.26330031    0.06030000
opls_142-126    C    0.16555003    0.71752983    0.29847940    0.06910000
opls_142-127    C    0.31472986    0.84544992    0.27032949    0.06880000
opls_145-128    C    0.46631998    0.62813001    0.88441955    -0.09650000
opls_145-129    C    0.42897005    0.59901001    0.88695035    -0.09690000
opls_145-130    C    0.42044005    0.56175990    0.86322934    -0.12790000
opls_700-131    C    0.44937994    0.55336985    0.83804965    0.08900000
opls_700-132    C    0.48715998    0.58280007    0.83796056    0.08900000
opls_145-133    C    0.49537998    0.62013983    0.85970041    -0.12900000
opls_145-134    C    0.44116006    0.51622989    0.80857997    -0.17340000
opls_700-135    C    0.46978995    0.50853983    0.75507973    0.02860000
opls_700-136    C    0.50755003    0.53800996    0.75764073    0.03030000
opls_145-137    C    0.51601998    0.57449995    0.81229011    -0.17290000
opls_700-138    C    0.46244987    0.47035986    0.69405956    -0.03010000
opls_700-139    C    0.56478995    0.55185999    0.55785063    -0.02790000
opls_700-140    C    0.56492993    0.58442992    0.45748973    0.06710000
opls_700-141    C    0.59494000    0.54425002    0.49677005    0.07000000
opls_145-142    C    0.46769000    0.41980009    0.36336978    -0.13330000
opls_145-143    C    0.47005989    0.38821987    0.30819944    -0.16930000
opls_145-144    C    0.43871990    0.35201988    0.33107031    0.18600000
opls_145-145    C    0.40509006    0.34819003    0.40424015    -0.16530000
opls_145-146    C    0.40329994    0.37951003    0.46956994    -0.12390000
opls_145-147    C    0.41143001    0.48285993    0.34946998    -0.13290000
opls_145-148    C    0.38246982    0.48968982    0.29432985    -0.17150000
opls_145-149    C    0.34666988    0.46864993    0.38018996    0.18760000
opls_145-150    C    0.34067996    0.44208991    0.53052066    -0.17200000
opls_145-151    C    0.36967001    0.43585997    0.58889979    -0.12140000
opls_145-152    C    0.21495002    0.42401999    0.23568948    -0.12180000
opls_145-153    C    0.18366999    0.42876986    0.22845041    -0.12040000
opls_700-154    C    0.18783007    0.46468996    0.24964967    0.07340000
opls_145-155    C    0.22411002    0.49597990    0.26674015    -0.13360000
opls_145-156    C    0.25557014    0.49121008    0.27365004    -0.13290000
opls_700-157    C    0.25103002    0.45498986    0.26330031    0.06030000
opls_142-158    C    0.28246993    0.44802002    0.29847940    0.06910000
opls_142-159    C    0.15454998    0.46927995    0.27032949    0.06880000
opls_145-160    C    0.37186994    0.83818980    0.88441955    -0.09650000
opls_145-161    C    0.40098993    0.82995993    0.88695035    -0.09690000
opls_145-162    C    0.43823994    0.85868005    0.86322934    -0.12790000
opls_700-163    C    0.44663000    0.89600997    0.83804965    0.08900000
opls_700-164    C    0.41719985    0.90435984    0.83796056    0.08900000
opls_145-165    C    0.37985990    0.87523984    0.85970041    -0.12900000
opls_145-166    C    0.48376989    0.92492989    0.80857997    -0.17350000
opls_700-167    C    0.49146005    0.96124987    0.75507973    0.02860000
opls_700-168    C    0.46198999    0.96953988    0.75764073    0.03030000
opls_145-169    C    0.42549993    0.94152003    0.81229011    -0.17290000
opls_700-170    C    0.52964006    0.99208991    0.69405956    -0.03010000
opls_700-171    C    0.44813991    0.01293001    0.55785063    -0.02790000
opls_700-172    C    0.41556991    0.98050003    0.45748973    0.06710000
opls_700-173    C    0.45574984    0.05068987    0.49677005    0.07000000
opls_145-174    C    0.58020004    0.04788991    0.36336978    -0.13330000
opls_145-175    C    0.61178002    0.08183987    0.30819944    -0.16930000
opls_145-176    C    0.64797987    0.08669990    0.33107031    0.18600000
opls_145-177    C    0.65181005    0.05689987    0.40424015    -0.16530000
opls_145-178    C    0.62049005    0.02379012    0.46956994    -0.12390000
opls_145-179    C    0.51713999    0.92856978    0.34946998    -0.13290000
opls_145-180    C    0.51030984    0.89277979    0.29432985    -0.17150000
opls_145-181    C    0.53134993    0.87801985    0.38018996    0.18750000
opls_145-182    C    0.55790989    0.89858990    0.53052066    -0.17200000
opls_145-183    C    0.56413995    0.93381002    0.58889979    -0.12140000
opls_145-184    C    0.57597986    0.79092991    0.23568948    -0.12180000
opls_145-185    C    0.57122993    0.75489993    0.22845041    -0.12040000
opls_700-186    C    0.53530994    0.72313987    0.24964967    0.07340000
opls_145-187    C    0.50402008    0.72813001    0.26674015    -0.13360000
opls_145-188    C    0.50878984    0.76435978    0.27365004    -0.13290000
opls_700-189    C    0.54500990    0.79604004    0.26330031    0.06030000
opls_142-190    C    0.55197990    0.83444987    0.29847940    0.06910000
opls_142-191    C    0.53072002    0.68526985    0.27032949    0.06890000
opls_750-192    N    0.84168011    0.31690009    0.31929965    -0.35800000
opls_750-193    N    0.12146996    0.43974996    0.28976957    -0.35820000
opls_750-194    N    0.68309984    0.52477983    0.31929965    -0.35800000
opls_750-195    N    0.56024989    0.68171988    0.28976957    -0.35820000
opls_750-196    N    0.47522004    0.15832008    0.31929965    -0.35810000
opls_750-197    N    0.31828001    0.87852988    0.28976957    -0.35820000
opls_750-198    N    0.15831989    0.68309991    0.31929965    -0.35800000
opls_750-199    N    0.87853004    0.56025004    0.28976957    -0.35820000
opls_750-200    N    0.31690001    0.47521989    0.31929965    -0.35810000
opls_750-201    N    0.43974997    0.31827984    0.28976957    -0.35820000
opls_750-202    N    0.52477996    0.84167992    0.31929965    -0.35800000
opls_750-203    N    0.68171999    0.12147012    0.28976957    -0.35820000
opls_146-204    H    0.81582014    0.47277006    0.90154929    0.11530000
opls_146-205    H    0.80121010    0.40655001    0.90554935    0.11790000
opls_146-206    H    0.85161013    0.39126010    0.86073025    0.11270000
opls_146-207    H    0.88112993    0.52419983    0.85764073    0.11660000
opls_146-208    H    0.91873007    0.41247000    0.82324988    0.11410000
opls_146-209    H    0.94820003    0.54503993    0.82191955    0.11270000
opls_146-210    H    0.04480000    0.49222002    0.34617963    0.11090000
opls_146-211    H    0.10413987    0.49652983    0.25232997    0.10940000
opls_146-212    H    0.06015011    0.38065008    0.42095011    0.11400000
opls_146-213    H    0.00256991    0.37755984    0.53830937    0.11480000
opls_146-214    H    0.93997013    0.43877009    0.27892003    0.11060000
opls_146-215    H    0.87680002    0.38764999    0.18255013    0.12120000
opls_146-216    H    0.88709008    0.31373004    0.60531982    0.11540000
opls_146-217    H    0.94867998    0.36470008    0.70896050    0.11570000
opls_146-218    H    0.81492004    0.21076991    0.22652966    0.11630000
opls_146-219    H    0.75203007    0.15610995    0.21322028    0.11090000
opls_146-220    H    0.70404994    0.22799990    0.28264073    0.11270000
opls_146-221    H    0.76752998    0.28314009    0.29495047    0.11400000
opls_144-222    H    0.85687011    0.27598001    0.31486017    0.10770000
opls_144-223    H    0.66134002    0.15858001    0.28793036    0.08680000
opls_146-224    H    0.52723000    0.34304983    0.90154929    0.11550000
opls_146-225    H    0.59345012    0.39466001    0.90554935    0.11790000
opls_146-226    H    0.60874014    0.46035008    0.86073025    0.11270000
opls_146-227    H    0.47579993    0.35692993    0.85764073    0.11660000
opls_146-228    H    0.58752990    0.50626001    0.82324988    0.11410000
opls_146-229    H    0.45495999    0.40315993    0.82191955    0.11630000
opls_146-230    H    0.50778001    0.55257993    0.34617963    0.11090000
opls_146-231    H    0.50346988    0.60760997    0.25232997    0.10940000
opls_146-232    H    0.61935007    0.67949992    0.42095011    0.11400000
opls_146-233    H    0.62243991    0.62500998    0.53830937    0.11480000
opls_146-234    H    0.56122991    0.50119990    0.27892003    0.11060000
opls_146-235    H    0.61235001    0.48915001    0.18255013    0.12120000
opls_146-236    H    0.68626989    0.57335990    0.60531982    0.11540000
opls_146-237    H    0.63530005    0.58398003    0.70896050    0.11570000
opls_146-238    H    0.78922994    0.60414992    0.22652966    0.11630000
opls_146-239    H    0.84389007    0.59592005    0.21322028    0.11090000
opls_146-240    H    0.77199999    0.47604999    0.28264073    0.11270000
opls_146-241    H    0.71686002    0.48439002    0.29495047    0.11400000
opls_144-242    H    0.72401994    0.58089006    0.31486017    0.10770000
opls_144-243    H    0.84142004    0.50276006    0.28793036    0.08680000
opls_146-244    H    0.65695010    0.18418010    0.90154929    0.11540000
opls_146-245    H    0.60534003    0.19878998    0.90554935    0.11790000
opls_146-246    H    0.53965011    0.14839011    0.86073025    0.11280000
opls_146-247    H    0.64307000    0.11886996    0.85764073    0.11660000
opls_146-248    H    0.49374002    0.08126999    0.82324988    0.11410000
opls_146-249    H    0.59683983    0.05179985    0.82191955    0.11270000
opls_146-250    H    0.44741985    0.95519977    0.34617963    0.11090000
opls_146-251    H    0.39238987    0.89585991    0.25232997    0.10950000
opls_146-252    H    0.32050006    0.93985000    0.42095011    0.11400000
opls_146-253    H    0.37499004    0.99742990    0.53830937    0.11490000
opls_146-254    H    0.49879996    0.06003001    0.27892003    0.11060000
opls_146-255    H    0.51084997    0.12320000    0.18255013    0.12120000
opls_146-256    H    0.42664003    0.11291006    0.60531982    0.11540000
opls_146-257    H    0.41601997    0.05131989    0.70896050    0.11570000
opls_146-258    H    0.39584988    0.18507989    0.22652966    0.11630000
opls_146-259    H    0.40408010    0.24797000    0.21322028    0.11090000
opls_146-260    H    0.52394994    0.29594983    0.28264073    0.11270000
opls_146-261    H    0.51561000    0.23246989    0.29495047    0.11400000
opls_144-262    H    0.41910995    0.14312992    0.31486017    0.10770000
opls_144-263    H    0.49723994    0.33865993    0.28793036    0.08680000
opls_146-264    H    0.18417986    0.52722994    0.90154929    0.11530000
opls_146-265    H    0.19878990    0.59344999    0.90554935    0.11800000
opls_146-266    H    0.14838987    0.60873990    0.86073025    0.11270000
opls_146-267    H    0.11886993    0.47579989    0.85764073    0.11660000
opls_146-268    H    0.08126993    0.58753000    0.82324988    0.11410000
opls_146-269    H    0.05179997    0.45496007    0.82191955    0.11270000
opls_146-270    H    0.95520000    0.50777998    0.34617963    0.11090000
opls_146-271    H    0.89585999    0.50346988    0.25232997    0.10940000
opls_146-272    H    0.93984989    0.61934992    0.42095011    0.11400000
opls_146-273    H    0.99742995    0.62243988    0.53830937    0.11480000
opls_146-274    H    0.06002987    0.56122991    0.27892003    0.11060000
opls_146-275    H    0.12319998    0.61235001    0.18255013    0.12120000
opls_146-276    H    0.11290992    0.68626996    0.60531982    0.11540000
opls_146-277    H    0.05132002    0.63529992    0.70896050    0.11570000
opls_146-278    H    0.18507982    0.78922981    0.22652966    0.11640000
opls_146-279    H    0.24796993    0.84389005    0.21322028    0.11090000
opls_146-280    H    0.29594992    0.77199982    0.28264073    0.11270000
opls_146-281    H    0.23247002    0.71685991    0.29495047    0.11400000
opls_144-282    H    0.14312989    0.72401999    0.31486017    0.10770000
opls_144-283    H    0.33865998    0.84141999    0.28793036    0.08680000
opls_146-284    H    0.47276986    0.65694989    0.90154929    0.11530000
opls_146-285    H    0.40654988    0.60533999    0.90554935    0.11790000
opls_146-286    H    0.39125986    0.53964992    0.86073025    0.11280000
opls_146-287    H    0.52420007    0.64307007    0.85764073    0.11660000
opls_146-288    H    0.41247010    0.49373999    0.82324988    0.11410000
opls_146-289    H    0.54504001    0.59684007    0.82191955    0.11630000
opls_146-290    H    0.49221999    0.44742007    0.34617963    0.11090000
opls_146-291    H    0.49653012    0.39239003    0.25232997    0.10940000
opls_146-292    H    0.38064993    0.32050008    0.42095011    0.11400000
opls_146-293    H    0.37756009    0.37499002    0.53830937    0.11480000
opls_146-294    H    0.43876995    0.49879982    0.27892003    0.11060000
opls_146-295    H    0.38764999    0.51084999    0.18255013    0.12120000
opls_146-296    H    0.31372997    0.42663982    0.60531982    0.11540000
opls_146-297    H    0.36469995    0.41601997    0.70896050    0.11580000
opls_146-298    H    0.21077006    0.39585008    0.22652966    0.11630000
opls_146-299    H    0.15610993    0.40407995    0.21322028    0.11090000
opls_146-300    H    0.22800001    0.52395001    0.28264073    0.11270000
opls_146-301    H    0.28313998    0.51560998    0.29495047    0.11400000
opls_144-302    H    0.27598006    0.41910994    0.31486017    0.10770000
opls_144-303    H    0.15857996    0.49723994    0.28793036    0.08680000
opls_146-304    H    0.34304990    0.81581990    0.90154929    0.11540000
opls_146-305    H    0.39465997    0.80121002    0.90554935    0.11790000
opls_146-306    H    0.46034989    0.85160989    0.86073025    0.11270000
opls_146-307    H    0.35693000    0.88113004    0.85764073    0.11660000
opls_146-308    H    0.50625998    0.91873001    0.82324988    0.11410000
opls_146-309    H    0.40316003    0.94819986    0.82191955    0.11270000
opls_146-310    H    0.55258001    0.04479995    0.34617963    0.11090000
opls_146-311    H    0.60761013    0.10414009    0.25232997    0.10950000
opls_146-312    H    0.67949994    0.06015000    0.42095011    0.11400000
opls_146-313    H    0.62500996    0.00257010    0.53830937    0.11480000
opls_146-314    H    0.50120004    0.93996999    0.27892003    0.11060000
opls_146-315    H    0.48915003    0.87680000    0.18255013    0.12120000
opls_146-316    H    0.57335997    0.88708994    0.60531982    0.11550000
opls_146-317    H    0.58397989    0.94867983    0.70896050    0.11570000
opls_146-318    H    0.60414998    0.81491983    0.22652966    0.11630000
opls_146-319    H    0.59591990    0.75203000    0.21322028    0.11090000
opls_146-320    H    0.47604992    0.70404988    0.28264073    0.11270000
opls_146-321    H    0.48438986    0.76752983    0.29495047    0.11400000
opls_144-322    H    0.58088991    0.85686980    0.31486017    0.10770000
opls_144-323    H    0.50276006    0.66134007    0.28793036    0.08680000
