#======================================================================
# Crystal Data Generated By AuToFF
#----------------------------------------------------------------------

data_AuToFF_phase_1

_cell_length_a                         19.5729
_cell_length_b                         36.6478
_cell_length_c                         35.0673
_cell_angle_alpha                      90.00
_cell_angle_beta                       90.00
_cell_angle_gamma                      90.00
_symmetry_space_group_name_H-M_alt     'P 1'
_symmetry_space_group_IT_number        1

loop_
_space_group_symop_operation_xyz
   'x, y, z'

loop_
   _atom_site_label
   _atom_site_type_symbol
   _atom_site_fract_x
   _atom_site_fract_y
   _atom_site_fract_z
   _atom_site_charge
opls_700-0    C    0.12691987    0.03329995    0.12076008    0.03330000
opls_142-1    C    0.14510011    0.06920006    0.13673993    0.01660000
opls_145-2    C    0.64815996    0.35929988    0.32049003    -0.13290000
opls_145-3    C    0.68186012    0.39103002    0.30771003    0.22910000
opls_145-4    C    0.90829003    0.03291002    0.90923995    -0.07920000
opls_145-5    C    0.72976003    0.61208012    0.71694998    -0.13270000
opls_145-6    C    0.16470988    0.82517996    0.18973003    -0.07390000
opls_145-7    C    0.24641979    0.85364988    0.23209001    -0.08000000
opls_700-8    C    0.21469021    0.82176993    0.21825005    0.08500000
opls_145-9    C    0.74810018    0.28002991    0.22302002    -0.07410000
opls_145-10    C    0.73541989    0.25455989    0.28624987    -0.07600000
opls_700-11    C    0.73319999    0.28505995    0.26185991    0.08300000
opls_700-12    C    0.12691987    0.96670005    0.87442004    0.08290000
opls_142-13    C    0.14510011    0.93079994    0.85843991    0.01660000
opls_145-14    C    0.64815996    0.64070012    0.67469010    -0.13290000
opls_145-15    C    0.68186012    0.60896998    0.68747009    0.22910000
opls_145-16    C    0.90829003    0.96708998    0.08593989    -0.07920000
opls_145-17    C    0.72976003    0.38791988    0.27822986    -0.13280000
opls_145-18    C    0.16470988    0.17482004    0.80545009    -0.07400000
opls_145-19    C    0.24641979    0.14635012    0.76309012    -0.08000000
opls_700-20    C    0.21469021    0.17823007    0.77693007    0.08500000
opls_145-21    C    0.74810018    0.71997009    0.77216010    -0.07410000
opls_145-22    C    0.73541989    0.74544011    0.70892997    -0.07600000
opls_700-23    C    0.73319999    0.71494005    0.73331993    0.08300000
opls_700-24    C    0.62691987    0.53329995    0.62076008    0.03330000
opls_142-25    C    0.64510011    0.56920006    0.63673993    0.01660000
opls_145-26    C    0.14815996    0.85929988    0.82049003    -0.13280000
opls_145-27    C    0.18186012    0.89103002    0.80771003    0.22910000
opls_145-28    C    0.40829003    0.53291002    0.40923995    -0.07920000
opls_145-29    C    0.22976003    0.11208012    0.21694998    -0.13270000
opls_145-30    C    0.66470988    0.32517996    0.68973003    -0.07400000
opls_145-31    C    0.74641979    0.35364988    0.73209001    -0.08000000
opls_700-32    C    0.71469021    0.32176993    0.71825005    0.08500000
opls_145-33    C    0.24810018    0.78002991    0.72302002    -0.07410000
opls_145-34    C    0.23541989    0.75455989    0.78624987    -0.07600000
opls_700-35    C    0.23319999    0.78505995    0.76185991    0.08300000
opls_700-36    C    0.62691987    0.46670005    0.37442004    0.08290000
opls_142-37    C    0.64510011    0.43079994    0.35843991    0.01660000
opls_145-38    C    0.14815996    0.14070012    0.17469010    -0.13290000
opls_145-39    C    0.18186012    0.10896998    0.18747009    0.22910000
opls_145-40    C    0.40829003    0.46708998    0.58593989    -0.07910000
opls_145-41    C    0.22976003    0.88791988    0.77822986    -0.13280000
opls_145-42    C    0.66470988    0.67482004    0.30545009    -0.07400000
opls_145-43    C    0.74641979    0.64635012    0.26309012    -0.08000000
opls_700-44    C    0.71469021    0.67823007    0.27693007    0.08500000
opls_145-45    C    0.24810018    0.21997009    0.27216010    -0.07410000
opls_145-46    C    0.23541989    0.24544011    0.20892997    -0.07600000
opls_700-47    C    0.23319999    0.21494005    0.23331993    0.08300000
opls_700-48    C    0.87308013    0.96670005    0.12076008    0.03330000
opls_142-49    C    0.85489989    0.93079994    0.13673993    0.01660000
opls_145-50    C    0.35184004    0.64070012    0.32049003    -0.13290000
opls_145-51    C    0.31813988    0.60896998    0.30771003    0.22920000
opls_145-52    C    0.09170997    0.96708998    0.90923995    -0.07920000
opls_145-53    C    0.27023997    0.38791988    0.71694998    -0.13280000
opls_145-54    C    0.83529012    0.17482004    0.18973003    -0.07400000
opls_145-55    C    0.75358021    0.14635012    0.23209001    -0.08000000
opls_700-56    C    0.78530979    0.17823007    0.21825005    0.08500000
opls_145-57    C    0.25189982    0.71997009    0.22302002    -0.07410000
opls_145-58    C    0.26458011    0.74544011    0.28624987    -0.07600000
opls_700-59    C    0.26680001    0.71494005    0.26185991    0.08300000
opls_700-60    C    0.87308013    0.03329995    0.87442004    0.08290000
opls_142-61    C    0.85489989    0.06920006    0.85843991    0.01660000
opls_145-62    C    0.35184004    0.35929988    0.67469010    -0.13290000
opls_145-63    C    0.31813988    0.39103002    0.68747009    0.22910000
opls_145-64    C    0.09170997    0.03291002    0.08593989    -0.07920000
opls_145-65    C    0.27023997    0.61208012    0.27822986    -0.13280000
opls_145-66    C    0.83529012    0.82517996    0.80545009    -0.07400000
opls_145-67    C    0.75358021    0.85364988    0.76309012    -0.08000000
opls_700-68    C    0.78530979    0.82176993    0.77693007    0.08500000
opls_145-69    C    0.25189982    0.28002991    0.77216010    -0.07410000
opls_145-70    C    0.26458011    0.25455989    0.70892997    -0.07600000
opls_700-71    C    0.26680001    0.28505995    0.73331993    0.08300000
opls_700-72    C    0.37308013    0.46670005    0.62076008    0.03330000
opls_142-73    C    0.35489989    0.43079994    0.63673993    0.01660000
opls_145-74    C    0.85184004    0.14070012    0.82049003    -0.13290000
opls_145-75    C    0.81813988    0.10896998    0.80771003    0.22910000
opls_145-76    C    0.59170997    0.46708998    0.40923995    -0.07920000
opls_145-77    C    0.77023997    0.88791988    0.21694998    -0.13280000
opls_145-78    C    0.33529012    0.67482004    0.68973003    -0.07400000
opls_145-79    C    0.25358021    0.64635012    0.73209001    -0.08000000
opls_700-80    C    0.28530979    0.67823007    0.71825005    0.08500000
opls_145-81    C    0.75189982    0.21997009    0.72302002    -0.07410000
opls_145-82    C    0.76458011    0.24544011    0.78624987    -0.07600000
opls_700-83    C    0.76680001    0.21494005    0.76185991    0.08300000
opls_700-84    C    0.37308013    0.53329995    0.37442004    0.08290000
opls_142-85    C    0.35489989    0.56920006    0.35843991    0.01660000
opls_145-86    C    0.85184004    0.85929988    0.17469010    -0.13290000
opls_145-87    C    0.81813988    0.89103002    0.18747009    0.22910000
opls_145-88    C    0.59170997    0.53291002    0.58593989    -0.07920000
opls_145-89    C    0.77023997    0.11208012    0.77822986    -0.13280000
opls_145-90    C    0.33529012    0.32517996    0.30545009    -0.07400000
opls_145-91    C    0.25358021    0.35364988    0.26309012    -0.08000000
opls_700-92    C    0.28530979    0.32176993    0.27693007    0.08510000
opls_145-93    C    0.75189982    0.78002991    0.27216010    -0.07410000
opls_145-94    C    0.76458011    0.75455989    0.20892997    -0.07600000
opls_700-95    C    0.76680001    0.78505995    0.23331993    0.08300000
opls_700-96    C    0.12691987    0.96670005    0.12076008    0.03330000
opls_142-97    C    0.14510011    0.93079994    0.13673993    0.01660000
opls_145-98    C    0.64815996    0.64070012    0.32049003    -0.13290000
opls_145-99    C    0.68186012    0.60896998    0.30771003    0.22910000
opls_145-100    C    0.90829003    0.96708998    0.90923995    -0.07920000
opls_145-101    C    0.72976003    0.38791988    0.71694998    -0.13280000
opls_145-102    C    0.16470988    0.17482004    0.18973003    -0.07400000
opls_145-103    C    0.24641979    0.14635012    0.23209001    -0.08000000
opls_700-104    C    0.21469021    0.17823007    0.21825005    0.08500000
opls_145-105    C    0.74810018    0.71997009    0.22302002    -0.07410000
opls_145-106    C    0.73541989    0.74544011    0.28624987    -0.07600000
opls_700-107    C    0.73319999    0.71494005    0.26185991    0.08300000
opls_700-108    C    0.12691987    0.03329995    0.87442004    0.08290000
opls_142-109    C    0.14510011    0.06920006    0.85843991    0.01660000
opls_145-110    C    0.64815996    0.35929988    0.67469010    -0.13290000
opls_145-111    C    0.68186012    0.39103002    0.68747009    0.22910000
opls_145-112    C    0.90829003    0.03291002    0.08593989    -0.07920000
opls_145-113    C    0.72976003    0.61208012    0.27822986    -0.13280000
opls_145-114    C    0.16470988    0.82517996    0.80545009    -0.07400000
opls_145-115    C    0.24641979    0.85364988    0.76309012    -0.08000000
opls_700-116    C    0.21469021    0.82176993    0.77693007    0.08500000
opls_145-117    C    0.74810018    0.28002991    0.77216010    -0.07410000
opls_145-118    C    0.73541989    0.25455989    0.70892997    -0.07600000
opls_700-119    C    0.73319999    0.28505995    0.73331993    0.08300000
opls_700-120    C    0.62691987    0.46670005    0.62076008    0.03330000
opls_142-121    C    0.64510011    0.43079994    0.63673993    0.01660000
opls_145-122    C    0.14815996    0.14070012    0.82049003    -0.13290000
opls_145-123    C    0.18186012    0.10896998    0.80771003    0.22910000
opls_145-124    C    0.40829003    0.46708998    0.40923995    -0.07920000
opls_145-125    C    0.22976003    0.88791988    0.21694998    -0.13280000
opls_145-126    C    0.66470988    0.67482004    0.68973003    -0.07400000
opls_145-127    C    0.74641979    0.64635012    0.73209001    -0.08000000
opls_700-128    C    0.71469021    0.67823007    0.71825005    0.08500000
opls_145-129    C    0.24810018    0.21997009    0.72302002    -0.07410000
opls_145-130    C    0.23541989    0.24544011    0.78624987    -0.07600000
opls_700-131    C    0.23319999    0.21494005    0.76185991    0.08300000
opls_700-132    C    0.62691987    0.53329995    0.37442004    0.08290000
opls_142-133    C    0.64510011    0.56920006    0.35843991    0.01660000
opls_145-134    C    0.14815996    0.85929988    0.17469010    -0.13290000
opls_145-135    C    0.18186012    0.89103002    0.18747009    0.22920000
opls_145-136    C    0.40829003    0.53291002    0.58593989    -0.07920000
opls_145-137    C    0.22976003    0.11208012    0.77822986    -0.13280000
opls_145-138    C    0.66470988    0.32517996    0.30545009    -0.07400000
opls_145-139    C    0.74641979    0.35364988    0.26309012    -0.08000000
opls_700-140    C    0.71469021    0.32176993    0.27693007    0.08500000
opls_145-141    C    0.24810018    0.78002991    0.27216010    -0.07410000
opls_145-142    C    0.23541989    0.75455989    0.20892997    -0.07600000
opls_700-143    C    0.23319999    0.78505995    0.23331993    0.08300000
opls_700-144    C    0.87308013    0.03329995    0.12076008    0.03330000
opls_142-145    C    0.85489989    0.06920006    0.13673993    0.01660000
opls_145-146    C    0.35184004    0.35929988    0.32049003    -0.13280000
opls_145-147    C    0.31813988    0.39103002    0.30771003    0.22910000
opls_145-148    C    0.09170997    0.03291002    0.90923995    -0.07910000
opls_145-149    C    0.27023997    0.61208012    0.71694998    -0.13280000
opls_145-150    C    0.83529012    0.82517996    0.18973003    -0.07400000
opls_145-151    C    0.75358021    0.85364988    0.23209001    -0.08000000
opls_700-152    C    0.78530979    0.82176993    0.21825005    0.08500000
opls_145-153    C    0.25189982    0.28002991    0.22302002    -0.07400000
opls_145-154    C    0.26458011    0.25455989    0.28624987    -0.07600000
opls_700-155    C    0.26680001    0.28505995    0.26185991    0.08300000
opls_700-156    C    0.87308013    0.96670005    0.87442004    0.08290000
opls_142-157    C    0.85489989    0.93079994    0.85843991    0.01660000
opls_145-158    C    0.35184004    0.64070012    0.67469010    -0.13290000
opls_145-159    C    0.31813988    0.60896998    0.68747009    0.22920000
opls_145-160    C    0.09170997    0.96708998    0.08593989    -0.07920000
opls_145-161    C    0.27023997    0.38791988    0.27822986    -0.13270000
opls_145-162    C    0.83529012    0.17482004    0.80545009    -0.07400000
opls_145-163    C    0.75358021    0.14635012    0.76309012    -0.08000000
opls_700-164    C    0.78530979    0.17823007    0.77693007    0.08500000
opls_145-165    C    0.25189982    0.71997009    0.77216010    -0.07410000
opls_145-166    C    0.26458011    0.74544011    0.70892997    -0.07600000
opls_700-167    C    0.26680001    0.71494005    0.73331993    0.08300000
opls_700-168    C    0.37308013    0.53329995    0.62076008    0.03330000
opls_142-169    C    0.35489989    0.56920006    0.63673993    0.01660000
opls_145-170    C    0.85184004    0.85929988    0.82049003    -0.13290000
opls_145-171    C    0.81813988    0.89103002    0.80771003    0.22910000
opls_145-172    C    0.59170997    0.53291002    0.40923995    -0.07920000
opls_145-173    C    0.77023997    0.11208012    0.21694998    -0.13280000
opls_145-174    C    0.33529012    0.32517996    0.68973003    -0.07400000
opls_145-175    C    0.25358021    0.35364988    0.73209001    -0.08000000
opls_700-176    C    0.28530979    0.32176993    0.71825005    0.08500000
opls_145-177    C    0.75189982    0.78002991    0.72302002    -0.07410000
opls_145-178    C    0.76458011    0.75455989    0.78624987    -0.07600000
opls_700-179    C    0.76680001    0.78505995    0.76185991    0.08300000
opls_700-180    C    0.37308013    0.46670005    0.37442004    0.08290000
opls_142-181    C    0.35489989    0.43079994    0.35843991    0.01660000
opls_145-182    C    0.85184004    0.14070012    0.17469010    -0.13290000
opls_145-183    C    0.81813988    0.10896998    0.18747009    0.22920000
opls_145-184    C    0.59170997    0.46708998    0.58593989    -0.07920000
opls_145-185    C    0.77023997    0.88791988    0.77822986    -0.13270000
opls_145-186    C    0.33529012    0.67482004    0.30545009    -0.07400000
opls_145-187    C    0.25358021    0.64635012    0.26309012    -0.08000000
opls_700-188    C    0.28530979    0.67823007    0.27693007    0.08500000
opls_145-189    C    0.75189982    0.21997009    0.27216010    -0.07410000
opls_145-190    C    0.76458011    0.24544011    0.20892997    -0.07600000
opls_700-191    C    0.76680001    0.21494005    0.23331993    0.08310000
opls_700-192    C    0.03602992    0.00000000    0.03229989    -0.00190000
opls_700-193    C    0.96397008    0.00000000    0.96287995    -0.00190000
opls_700-194    C    0.07201999    0.00000000    0.99759006    0.09880000
opls_148-195    C    0.14873013    0.00000000    0.99749995    -0.35830000
opls_700-196    C    0.53602992    0.50000000    0.53229989    -0.00190000
opls_700-197    C    0.46397008    0.50000000    0.46287995    -0.00190000
opls_700-198    C    0.57201999    0.50000000    0.49759006    0.09870000
opls_148-199    C    0.64873013    0.50000000    0.49749995    -0.35810000
opls_700-200    C    0.96397008    0.00000000    0.03229989    -0.00190000
opls_700-201    C    0.03602992    0.00000000    0.96287995    -0.00190000
opls_700-202    C    0.92798001    0.00000000    0.99759006    0.09870000
opls_148-203    C    0.85126987    0.00000000    0.99749995    -0.35830000
opls_700-204    C    0.46397008    0.50000000    0.53229989    -0.00190000
opls_700-205    C    0.53602992    0.50000000    0.46287995    -0.00190000
opls_700-206    C    0.42798001    0.50000000    0.49759006    0.09870000
opls_148-207    C    0.35126987    0.50000000    0.49749995    -0.35820000
opls_145-208    C    0.64433988    0.50000000    0.35676000    -0.04580000
opls_700-209    C    0.57383014    0.50000000    0.42646996    0.09060000
opls_145-210    C    0.35566012    0.50000000    0.63842012    -0.02990000
opls_700-211    C    0.42616986    0.50000000    0.56870988    0.09060000
MOF2_C_3-212    C    0.32756975    0.50000000    0.66689993    -0.00060000
opls_145-213    C    0.14433988    0.00000000    0.85676000    -0.04580000
opls_700-214    C    0.07383014    0.00000000    0.92646996    0.09060000
opls_145-215    C    0.85566012    0.00000000    0.13842012    -0.02990000
opls_700-216    C    0.92616986    0.00000000    0.06870988    0.09070000
MOF2_C_3-217    C    0.82756975    0.00000000    0.16689993    -0.00060000
opls_145-218    C    0.35566012    0.50000000    0.35676000    -0.04580000
opls_700-219    C    0.42616986    0.50000000    0.42646996    0.09060000
opls_145-220    C    0.64433988    0.50000000    0.63842012    -0.02990000
opls_700-221    C    0.57383014    0.50000000    0.56870988    0.09060000
MOF2_C_3-222    C    0.67243025    0.50000000    0.66689993    -0.00060000
opls_145-223    C    0.85566012    0.00000000    0.85676000    -0.04580000
opls_700-224    C    0.92616986    0.00000000    0.92646996    0.09060000
opls_145-225    C    0.14433988    0.00000000    0.13842012    -0.02990000
opls_700-226    C    0.07383014    0.00000000    0.06870988    0.09060000
MOF2_C_3-227    C    0.17243025    0.00000000    0.16689993    -0.00060000
opls_750-228    N    0.16781979    0.07355994    0.82392001    -0.26600000
opls_750-229    N    0.16781979    0.92644006    0.17126012    -0.26600000
opls_750-230    N    0.66781979    0.57355994    0.32392001    -0.26610000
opls_750-231    N    0.66781979    0.42644006    0.67126012    -0.26610000
opls_750-232    N    0.83218021    0.92644006    0.82392001    -0.26610000
opls_750-233    N    0.83218021    0.07355994    0.17126012    -0.26610000
opls_750-234    N    0.33218021    0.42644006    0.32392001    -0.26610000
opls_750-235    N    0.33218021    0.57355994    0.67126012    -0.26610000
opls_750-236    N    0.16781979    0.92644006    0.82392001    -0.26610000
opls_750-237    N    0.16781979    0.07355994    0.17126012    -0.26600000
opls_750-238    N    0.66781979    0.42644006    0.32392001    -0.26610000
opls_750-239    N    0.66781979    0.57355994    0.67126012    -0.26610000
opls_750-240    N    0.83218021    0.07355994    0.82392001    -0.26610000
opls_750-241    N    0.83218021    0.92644006    0.17126012    -0.26610000
opls_750-242    N    0.33218021    0.57355994    0.32392001    -0.26610000
opls_750-243    N    0.33218021    0.42644006    0.67126012    -0.26610000
opls_144-244    H    0.13946988    0.09482998    0.11858997    0.02960000
opls_146-245    H    0.60691977    0.36136003    0.34334009    0.05010000
opls_146-246    H    0.92256998    0.05969008    0.92373008    0.05010000
opls_146-247    H    0.75557020    0.58661993    0.72883997    0.05010000
opls_146-248    H    0.13719020    0.79990995    0.17862995    0.05010000
opls_146-249    H    0.28605981    0.85171988    0.25582009    0.05010000
opls_146-250    H    0.74681984    0.30427993    0.20267001    0.05020000
opls_146-251    H    0.72370012    0.25790006    0.31789987    0.05010000
opls_144-252    H    0.13946988    0.90517002    0.87658987    0.02960000
opls_146-253    H    0.60691977    0.63863997    0.65184003    0.05020000
opls_146-254    H    0.92256998    0.94030992    0.07145004    0.05010000
opls_146-255    H    0.75557020    0.41338007    0.26633987    0.05020000
opls_146-256    H    0.13719020    0.20009005    0.81654989    0.05010000
opls_146-257    H    0.28605981    0.14828012    0.73936003    0.05010000
opls_146-258    H    0.74681984    0.69572007    0.79251012    0.05010000
opls_146-259    H    0.72370012    0.74209994    0.67727997    0.05010000
opls_702-260    H    0.16845026    0.02489999    0.98260003    0.11960000
opls_144-261    H    0.63946988    0.59482998    0.61858997    0.02970000
opls_146-262    H    0.10691977    0.86136003    0.84334009    0.05010000
opls_146-263    H    0.42256998    0.55969008    0.42373008    0.05010000
opls_146-264    H    0.25557020    0.08661993    0.22883997    0.05010000
opls_146-265    H    0.63719020    0.29990995    0.67862995    0.05010000
opls_146-266    H    0.78605981    0.35171988    0.75582009    0.05020000
opls_146-267    H    0.24681984    0.80427993    0.70267001    0.05010000
opls_146-268    H    0.22370012    0.75790006    0.81789987    0.05010000
opls_144-269    H    0.63946988    0.40517002    0.37658987    0.02960000
opls_146-270    H    0.10691977    0.13863997    0.15184003    0.05010000
opls_146-271    H    0.42256998    0.44030992    0.57145004    0.05010000
opls_146-272    H    0.25557020    0.91338007    0.76633987    0.05010000
opls_146-273    H    0.63719020    0.70009005    0.31654989    0.05010000
opls_146-274    H    0.78605981    0.64828012    0.23936003    0.05010000
opls_146-275    H    0.24681984    0.19572007    0.29251012    0.05010000
opls_146-276    H    0.22370012    0.24209994    0.17727997    0.05010000
opls_702-277    H    0.66845026    0.52489999    0.48260003    0.11960000
opls_144-278    H    0.86053012    0.90517002    0.11858997    0.02960000
opls_146-279    H    0.39308023    0.63863997    0.34334009    0.05010000
opls_146-280    H    0.07743002    0.94030992    0.92373008    0.05010000
opls_146-281    H    0.24442980    0.41338007    0.72883997    0.05010000
opls_146-282    H    0.86280980    0.20009005    0.17862995    0.05010000
opls_146-283    H    0.71394019    0.14828012    0.25582009    0.05010000
opls_146-284    H    0.25318016    0.69572007    0.20267001    0.05010000
opls_146-285    H    0.27629988    0.74209994    0.31789987    0.05010000
opls_144-286    H    0.86053012    0.09482998    0.87658987    0.02960000
opls_146-287    H    0.39308023    0.36136003    0.65184003    0.05010000
opls_146-288    H    0.07743002    0.05969008    0.07145004    0.05020000
opls_146-289    H    0.24442980    0.58661993    0.26633987    0.05010000
opls_146-290    H    0.86280980    0.79990995    0.81654989    0.05010000
opls_146-291    H    0.71394019    0.85171988    0.73936003    0.05010000
opls_146-292    H    0.25318016    0.30427993    0.79251012    0.05010000
opls_146-293    H    0.27629988    0.25790006    0.67727997    0.05010000
opls_702-294    H    0.83155026    0.97510001    0.98260003    0.11960000
opls_144-295    H    0.36053012    0.40517002    0.61858997    0.02960000
opls_146-296    H    0.89308023    0.13863997    0.84334009    0.05010000
opls_146-297    H    0.57743002    0.44030992    0.42373008    0.05010000
opls_146-298    H    0.74442980    0.91338007    0.22883997    0.05010000
opls_146-299    H    0.36280980    0.70009005    0.67862995    0.05010000
opls_146-300    H    0.21394019    0.64828012    0.75582009    0.05010000
opls_146-301    H    0.75318016    0.19572007    0.70267001    0.05010000
opls_146-302    H    0.77629988    0.24209994    0.81789987    0.05010000
opls_144-303    H    0.36053012    0.59482998    0.37658987    0.02960000
opls_146-304    H    0.89308023    0.86136003    0.15184003    0.05010000
opls_146-305    H    0.57743002    0.55969008    0.57145004    0.05010000
opls_146-306    H    0.74442980    0.08661993    0.76633987    0.05010000
opls_146-307    H    0.36280980    0.29990995    0.31654989    0.05010000
opls_146-308    H    0.21394019    0.35171988    0.23936003    0.05010000
opls_146-309    H    0.75318016    0.80427993    0.29251012    0.05010000
opls_146-310    H    0.77629988    0.75790006    0.17727997    0.05010000
opls_702-311    H    0.33155026    0.47510001    0.48260003    0.11970000
opls_144-312    H    0.13946988    0.90517002    0.11858997    0.02960000
opls_146-313    H    0.60691977    0.63863997    0.34334009    0.05010000
opls_146-314    H    0.92256998    0.94030992    0.92373008    0.05010000
opls_146-315    H    0.75557020    0.41338007    0.72883997    0.05010000
opls_146-316    H    0.13719020    0.20009005    0.17862995    0.05010000
opls_146-317    H    0.28605981    0.14828012    0.25582009    0.05010000
opls_146-318    H    0.74681984    0.69572007    0.20267001    0.05010000
opls_146-319    H    0.72370012    0.74209994    0.31789987    0.05010000
opls_144-320    H    0.13946988    0.09482998    0.87658987    0.02960000
opls_146-321    H    0.60691977    0.36136003    0.65184003    0.05010000
opls_146-322    H    0.92256998    0.05969008    0.07145004    0.05010000
opls_146-323    H    0.75557020    0.58661993    0.26633987    0.05010000
opls_146-324    H    0.13719020    0.79990995    0.81654989    0.05010000
opls_146-325    H    0.28605981    0.85171988    0.73936003    0.05020000
opls_146-326    H    0.74681984    0.30427993    0.79251012    0.05010000
opls_146-327    H    0.72370012    0.25790006    0.67727997    0.05010000
opls_702-328    H    0.16845026    0.97510001    0.98260003    0.11960000
opls_144-329    H    0.63946988    0.40517002    0.61858997    0.02960000
opls_146-330    H    0.10691977    0.13863997    0.84334009    0.05010000
opls_146-331    H    0.42256998    0.44030992    0.42373008    0.05010000
opls_146-332    H    0.25557020    0.91338007    0.22883997    0.05010000
opls_146-333    H    0.63719020    0.70009005    0.67862995    0.05010000
opls_146-334    H    0.78605981    0.64828012    0.75582009    0.05010000
opls_146-335    H    0.24681984    0.19572007    0.70267001    0.05010000
opls_146-336    H    0.22370012    0.24209994    0.81789987    0.05010000
opls_144-337    H    0.63946988    0.59482998    0.37658987    0.02960000
opls_146-338    H    0.10691977    0.86136003    0.15184003    0.05010000
opls_146-339    H    0.42256998    0.55969008    0.57145004    0.05010000
opls_146-340    H    0.25557020    0.08661993    0.76633987    0.05010000
opls_146-341    H    0.63719020    0.29990995    0.31654989    0.05010000
opls_146-342    H    0.78605981    0.35171988    0.23936003    0.05010000
opls_146-343    H    0.24681984    0.80427993    0.29251012    0.05010000
opls_146-344    H    0.22370012    0.75790006    0.17727997    0.05010000
opls_702-345    H    0.66845026    0.47510001    0.48260003    0.11960000
opls_144-346    H    0.86053012    0.09482998    0.11858997    0.02970000
opls_146-347    H    0.39308023    0.36136003    0.34334009    0.05010000
opls_146-348    H    0.07743002    0.05969008    0.92373008    0.05010000
opls_146-349    H    0.24442980    0.58661993    0.72883997    0.05010000
opls_146-350    H    0.86280980    0.79990995    0.17862995    0.05010000
opls_146-351    H    0.71394019    0.85171988    0.25582009    0.05010000
opls_146-352    H    0.25318016    0.30427993    0.20267001    0.05010000
opls_146-353    H    0.27629988    0.25790006    0.31789987    0.05010000
opls_144-354    H    0.86053012    0.90517002    0.87658987    0.02960000
opls_146-355    H    0.39308023    0.63863997    0.65184003    0.05010000
opls_146-356    H    0.07743002    0.94030992    0.07145004    0.05010000
opls_146-357    H    0.24442980    0.41338007    0.26633987    0.05010000
opls_146-358    H    0.86280980    0.20009005    0.81654989    0.05010000
opls_146-359    H    0.71394019    0.14828012    0.73936003    0.05020000
opls_146-360    H    0.25318016    0.69572007    0.79251012    0.05010000
opls_146-361    H    0.27629988    0.74209994    0.67727997    0.05010000
opls_702-362    H    0.83155026    0.02489999    0.98260003    0.11960000
opls_144-363    H    0.36053012    0.59482998    0.61858997    0.02960000
opls_146-364    H    0.89308023    0.86136003    0.84334009    0.05010000
opls_146-365    H    0.57743002    0.55969008    0.42373008    0.05010000
opls_146-366    H    0.74442980    0.08661993    0.22883997    0.05010000
opls_146-367    H    0.36280980    0.29990995    0.67862995    0.05010000
opls_146-368    H    0.21394019    0.35171988    0.75582009    0.05010000
opls_146-369    H    0.75318016    0.80427993    0.70267001    0.05010000
opls_146-370    H    0.77629988    0.75790006    0.81789987    0.05020000
opls_144-371    H    0.36053012    0.40517002    0.37658987    0.02960000
opls_146-372    H    0.89308023    0.13863997    0.15184003    0.05010000
opls_146-373    H    0.57743002    0.44030992    0.57145004    0.05010000
opls_146-374    H    0.74442980    0.91338007    0.76633987    0.05010000
opls_146-375    H    0.36280980    0.70009005    0.31654989    0.05010000
opls_146-376    H    0.21394019    0.64828012    0.23936003    0.05010000
opls_146-377    H    0.75318016    0.19572007    0.29251012    0.05010000
opls_146-378    H    0.77629988    0.24209994    0.17727997    0.05010000
opls_702-379    H    0.33155026    0.52489999    0.48260003    0.11970000
opls_702-380    H    0.16753981    0.00000000    0.02765996    0.12030000
opls_702-381    H    0.66753981    0.50000000    0.52765996    0.12030000
opls_702-382    H    0.83246019    0.00000000    0.02765996    0.12030000
opls_702-383    H    0.33246019    0.50000000    0.52765996    0.12030000
opls_146-384    H    0.67243025    0.50000000    0.32827991    0.05010000
opls_146-385    H    0.17243025    0.00000000    0.82827991    0.05010000
opls_146-386    H    0.32756975    0.50000000    0.32827991    0.05010000
opls_146-387    H    0.82756975    0.00000000    0.82827991    0.05010000
