#======================================================================
# Crystal Data Generated By AuToFF
#----------------------------------------------------------------------

data_AuToFF_phase_1

_cell_length_a                         24.9250
_cell_length_b                         24.9250
_cell_length_c                         7.9874
_cell_angle_alpha                      90.00
_cell_angle_beta                       90.00
_cell_angle_gamma                      90.00
_symmetry_space_group_name_H-M_alt     'P 1'
_symmetry_space_group_IT_number        1

loop_
_space_group_symop_operation_xyz
   'x, y, z'

loop_
   _atom_site_label
   _atom_site_type_symbol
   _atom_site_fract_x
   _atom_site_fract_y
   _atom_site_fract_z
   _atom_site_charge
opls_145-0    C    0.20470010    0.50949007    0.24933020    0.18450000
opls_145-1    C    0.23250993    0.47600000    0.33181010    -0.16290000
opls_145-2    C    0.28313019    0.47486981    0.33481984    -0.16110000
opls_145-3    C    0.31433982    0.50675988    0.25682951    0.04940000
opls_145-4    C    0.28574002    0.53967984    0.17479029    -0.16110000
opls_145-5    C    0.23561003    0.54085015    0.17138994    -0.16290000
opls_716-6    C    0.37914985    0.41795988    0.22736059    -0.14570000
opls_716-7    C    0.41094002    0.38615005    0.22692991    -0.14570000
opls_507-8    C    0.45526981    0.40609990    0.25279941    0.20220000
opls_507-9    C    0.39922006    0.46216008    0.25293963    0.20220000
opls_716-10    C    0.41361003    0.62551013    0.29340962    -0.14410000
opls_716-11    C    0.38036991    0.59224995    0.29350978    -0.14410000
opls_507-12    C    0.39940020    0.55055005    0.26610036    0.19520000
opls_507-13    C    0.45530993    0.60647984    0.26604026    0.19530000
opls_141-14    C    0.37262989    0.50637994    0.25901044    -0.05490000
opls_716-15    C    0.61962006    0.59490993    0.22576057    -0.14570000
opls_716-16    C    0.58782989    0.62672016    0.22651050    -0.14560000
opls_507-17    C    0.54366018    0.60664995    0.25275058    0.20220000
opls_507-18    C    0.59969990    0.55058014    0.25244009    0.20220000
opls_141-19    C    0.49945998    0.63326018    0.25892030    -0.05490000
opls_716-20    C    0.58552016    0.38698014    0.29108972    -0.14410000
opls_716-21    C    0.61881003    0.42028004    0.29127000    -0.14410000
opls_507-22    C    0.59975005    0.46205015    0.26558955    0.19550000
opls_507-23    C    0.54377011    0.40606018    0.26548940    0.19520000
opls_141-24    C    0.49949007    0.37939017    0.25930966    -0.05800000
opls_141-25    C    0.62641003    0.50634985    0.25924957    -0.05800000
opls_145-26    C    0.49909007    0.69155988    0.25665047    0.04940000
opls_145-27    C    0.68473982    0.50683009    0.26135038    0.04870000
opls_145-28    C    0.49901986    0.32105998    0.26143050    0.04940000
opls_145-29    C    0.53084012    0.72278997    0.33534943    -0.16110000
opls_145-30    C    0.52968987    0.77342989    0.33232967    -0.16280000
opls_145-31    C    0.49638997    0.80122006    0.24869044    0.18640000
opls_145-32    C    0.46523009    0.77027001    0.16972982    -0.16290000
opls_145-33    C    0.46632016    0.72014002    0.17372987    -0.16130000
opls_145-34    C    0.71604012    0.47446018    0.18643989    -0.16110000
opls_145-35    C    0.76665998    0.47558997    0.18984025    -0.16290000
opls_145-36    C    0.79441003    0.50980983    0.26819991    0.17980000
opls_145-37    C    0.76343992    0.54185998    0.34182963    -0.16270000
opls_145-38    C    0.71331996    0.54037994    0.33982022    -0.16140000
opls_145-39    C    0.46588004    0.29247984    0.34228034    -0.16130000
opls_145-40    C    0.46456008    0.24233982    0.34514986    -0.16290000
opls_145-41    C    0.49612999    0.21137011    0.26863059    0.18510000
opls_145-42    C    0.52985998    0.23914985    0.18746025    -0.16280000
opls_145-43    C    0.53102989    0.28978014    0.18434034    -0.16110000
opls_142-44    C    0.51313019    0.11838997    0.22616997    0.13960000
opls_145-45    C    0.50602006    0.06098014    0.24391041    -0.02130000
opls_145-46    C    0.47278997    0.03339017    0.32969051    -0.17650000
opls_166-47    C    0.53767984    0.02978014    0.16640960    0.24680000
opls_517-48    C    0.60992016    0.02643009    0.02183940    0.19900000
opls_142-49    C    0.88791013    0.49191013    0.23935949    0.14000000
opls_145-50    C    0.94463992    0.50104995    0.26467061    -0.02140000
opls_145-51    C    0.97358997    0.46824995    0.34363998    -0.17620000
opls_166-52    C    0.97521003    0.53377011    0.18531938    0.24560000
opls_142-53    C    0.11179980    0.49351013    0.29738964    0.14020000
opls_145-54    C    0.05440000    0.49925015    0.27479029    -0.02130000
opls_142-55    C    0.50992016    0.89512016    0.29749981    0.14320000
opls_145-56    C    0.50262989    0.95150010    0.25843954    -0.02130000
opls_145-57    C    0.53592016    0.97940020    0.17661943    -0.17650000
opls_166-58    C    0.47129990    0.98290993    0.33887999    0.24580000
opls_145-59    C    0.02591013    0.53242006    0.19104965    -0.17650000
opls_166-60    C    0.02335005    0.46731996    0.35124947    0.24640000
opls_142-61    C    0.92091996    0.59190010    0.15168015    0.19880000
opls_142-62    C    0.39777011    0.95457011    0.36396950    0.19900000
opls_142-63    C    0.05779017    0.39576008    0.35719007    0.20070000
opls_143-64    C    0.93152016    0.64086018    0.12838971    -0.29970000
opls_143-65    C    0.38848987    0.90550010    0.39145028    -0.29980000
opls_143-66    C    0.02625998    0.35700020    0.38495005    -0.29970000
opls_143-67    C    0.64192016    0.05952016    0.94461026    -0.33020000
opls_145-68    C    0.20470010    0.50949007    0.74933020    0.18450000
opls_145-69    C    0.23250993    0.47600000    0.83181010    -0.16290000
opls_145-70    C    0.28313019    0.47486981    0.83481984    -0.16110000
opls_145-71    C    0.31433982    0.50675988    0.75682951    0.04950000
opls_145-72    C    0.28574002    0.53967984    0.67479029    -0.16130000
opls_145-73    C    0.23561003    0.54085015    0.67138994    -0.16290000
opls_716-74    C    0.37914985    0.41795988    0.72736059    -0.14570000
opls_716-75    C    0.41094002    0.38615005    0.72692991    -0.14570000
opls_507-76    C    0.45526981    0.40609990    0.75279941    0.20220000
opls_507-77    C    0.39922006    0.46216008    0.75293963    0.20230000
opls_716-78    C    0.41361003    0.62551013    0.79340962    -0.14410000
opls_716-79    C    0.38036991    0.59224995    0.79350978    -0.14400000
opls_507-80    C    0.39940020    0.55055005    0.76610036    0.19520000
opls_507-81    C    0.45530993    0.60647984    0.76604026    0.19530000
opls_141-82    C    0.37262989    0.50637994    0.75901044    -0.05490000
opls_716-83    C    0.61962006    0.59490993    0.72576057    -0.14570000
opls_716-84    C    0.58782989    0.62672016    0.72651050    -0.14570000
opls_507-85    C    0.54366018    0.60664995    0.75275058    0.20230000
opls_507-86    C    0.59969990    0.55058014    0.75244009    0.20230000
opls_141-87    C    0.49945998    0.63326018    0.75892030    -0.05490000
opls_716-88    C    0.58552016    0.38698014    0.79108972    -0.14410000
opls_716-89    C    0.61881003    0.42028004    0.79127000    -0.14410000
opls_507-90    C    0.59975005    0.46205015    0.76558955    0.19540000
opls_507-91    C    0.54377011    0.40606018    0.76548940    0.19520000
opls_141-92    C    0.49949007    0.37939017    0.75930966    -0.05800000
opls_141-93    C    0.62641003    0.50634985    0.75924957    -0.05800000
opls_145-94    C    0.49909007    0.69155988    0.75665047    0.04940000
opls_145-95    C    0.68473982    0.50683009    0.76135038    0.04870000
opls_145-96    C    0.49901986    0.32105998    0.76143050    0.04940000
opls_145-97    C    0.53084012    0.72278997    0.83534943    -0.16110000
opls_145-98    C    0.52968987    0.77342989    0.83232967    -0.16290000
opls_145-99    C    0.49638997    0.80122006    0.74869044    0.18640000
opls_145-100    C    0.46523009    0.77027001    0.66972982    -0.16280000
opls_145-101    C    0.46632016    0.72014002    0.67372987    -0.16130000
opls_145-102    C    0.71604012    0.47446018    0.68643989    -0.16100000
opls_145-103    C    0.76665998    0.47558997    0.68984025    -0.16290000
opls_145-104    C    0.79441003    0.50980983    0.76819991    0.17990000
opls_145-105    C    0.76343992    0.54185998    0.84182963    -0.16260000
opls_145-106    C    0.71331996    0.54037994    0.83982022    -0.16140000
opls_145-107    C    0.46588004    0.29247984    0.84228034    -0.16130000
opls_145-108    C    0.46456008    0.24233982    0.84514986    -0.16290000
opls_145-109    C    0.49612999    0.21137011    0.76863059    0.18530000
opls_145-110    C    0.52985998    0.23914985    0.68746025    -0.16280000
opls_145-111    C    0.53102989    0.28978014    0.68434034    -0.16110000
opls_142-112    C    0.51313019    0.11838997    0.72616997    0.13960000
opls_145-113    C    0.50602006    0.06098014    0.74391041    -0.02130000
opls_145-114    C    0.47278997    0.03339017    0.82969051    -0.17650000
opls_166-115    C    0.53767984    0.02978014    0.66640960    0.24690000
opls_517-116    C    0.60992016    0.02643009    0.52183940    0.19900000
opls_142-117    C    0.88791013    0.49191013    0.73935949    0.14010000
opls_145-118    C    0.94463992    0.50104995    0.76467061    -0.02140000
opls_145-119    C    0.97358997    0.46824995    0.84363998    -0.17600000
opls_166-120    C    0.97521003    0.53377011    0.68531938    0.24560000
opls_142-121    C    0.11179980    0.49351013    0.79738964    0.14010000
opls_145-122    C    0.05440000    0.49925015    0.77479029    -0.02130000
opls_142-123    C    0.50992016    0.89512016    0.79749981    0.14330000
opls_145-124    C    0.50262989    0.95150010    0.75843954    -0.02130000
opls_145-125    C    0.53592016    0.97940020    0.67661943    -0.17640000
opls_166-126    C    0.47129990    0.98290993    0.83887999    0.24580000
opls_145-127    C    0.02591013    0.53242006    0.69104965    -0.17650000
opls_166-128    C    0.02335005    0.46731996    0.85124947    0.24640000
opls_142-129    C    0.92091996    0.59190010    0.65168015    0.19880000
opls_142-130    C    0.39777011    0.95457011    0.86396950    0.19900000
opls_142-131    C    0.05779017    0.39576008    0.85719007    0.20070000
opls_143-132    C    0.93152016    0.64086018    0.62838971    -0.29970000
opls_143-133    C    0.38848987    0.90550010    0.89145028    -0.29980000
opls_143-134    C    0.02625998    0.35700020    0.88495005    -0.29960000
opls_143-135    C    0.64192016    0.05952016    0.44461026    -0.33020000
opls_542-136    N    0.44566018    0.45252999    0.26548940    -0.00670000
opls_542-137    N    0.44567984    0.56019017    0.25166011    0.00100000
opls_542-138    N    0.55328987    0.56021986    0.26557954    -0.00670000
opls_542-139    N    0.55342989    0.45237994    0.25186043    0.00100000
opls_750-140    N    0.49267001    0.85481003    0.23196034    -0.12710000
opls_750-141    N    0.84801003    0.51498014    0.27681974    -0.11890000
opls_750-142    N    0.49150010    0.15772999    0.27995969    -0.12310000
opls_750-143    N    0.15108004    0.51354985    0.23524050    -0.12180000
opls_542-144    N    0.44566018    0.45252999    0.76548940    -0.00670000
opls_542-145    N    0.44567984    0.56019017    0.75166011    0.00100000
opls_542-146    N    0.55328987    0.56021986    0.76557954    -0.00670000
opls_542-147    N    0.55342989    0.45237994    0.75186043    0.00100000
opls_750-148    N    0.49267001    0.85481003    0.73196034    -0.12710000
opls_750-149    N    0.84801003    0.51498014    0.77681974    -0.11890000
opls_750-150    N    0.49150010    0.15772999    0.77995969    -0.12310000
opls_750-151    N    0.15108004    0.51354985    0.73524050    -0.12180000
opls_180-152    O    0.57165015    0.05087984    0.07393019    -0.24380000
opls_180-153    O    0.95714985    0.56707001    0.08241981    -0.21180000
opls_180-154    O    0.43886981    0.96497011    0.44486942    -0.23390000
opls_180-155    O    0.04124012    0.43303992    0.44909983    -0.24320000
opls_180-156    O    0.57165015    0.05087984    0.57393019    -0.24370000
opls_180-157    O    0.95714985    0.56707001    0.58241981    -0.21200000
opls_180-158    O    0.43886981    0.96497011    0.94486942    -0.23400000
opls_180-159    O    0.04124012    0.43303992    0.94909983    -0.24330000
opls_146-160    H    0.21181986    0.44394985    0.41052032    0.05040000
opls_146-161    H    0.30483009    0.44322006    0.41246964    0.05040000
opls_146-162    H    0.30566981    0.57192016    0.09490948    0.05050000
opls_146-163    H    0.21401003    0.57231013    0.09268974    0.05040000
opls_547-164    H    0.33539017    0.40659017    0.20578035    0.05040000
opls_547-165    H    0.39953019    0.34245015    0.20439943    0.05040000
opls_547-166    H    0.40233019    0.66912016    0.31806971    0.05040000
opls_547-167    H    0.33675988    0.60351013    0.31837018    0.05040000
opls_547-168    H    0.66327984    0.60627001    0.20228986    0.05040000
opls_547-169    H    0.59920000    0.67046018    0.20461978    0.05040000
opls_547-170    H    0.59686018    0.34328987    0.31408969    0.05040000
opls_547-171    H    0.66247984    0.40894002    0.31464056    0.05040000
opls_146-172    H    0.56393019    0.70536008    0.41754013    0.05040000
opls_146-173    H    0.56002006    0.79745998    0.40838946    0.05040000
opls_146-174    H    0.43258014    0.78766981    0.08581015    0.05040000
opls_146-175    H    0.43595988    0.69597994    0.09816962    0.05040000
opls_146-176    H    0.69878997    0.44055005    0.10722012    0.05040000
opls_146-177    H    0.79073019    0.44410993    0.11857050    0.05040000
opls_146-178    H    0.78064995    0.57619017    0.41935048    0.05040000
opls_146-179    H    0.68922006    0.57126018    0.41353006    0.05040000
opls_146-180    H    0.43349007    0.31238997    0.42163032    0.05040000
opls_146-181    H    0.43265998    0.22074985    0.42211984    0.05040000
opls_146-182    H    0.56220983    0.21846981    0.10991061    0.05040000
opls_146-183    H    0.56286981    0.31143992    0.10734031    0.05040000
opls_144-184    H    0.54874985    0.12246018    0.13753036    0.02980000
opls_146-185    H    0.44069007    0.05441003    0.40736034    0.05050000
opls_185-186    H    0.61321003    0.98139017    0.04436988    0.02720000
opls_144-187    H    0.88550010    0.45280000    0.16573979    0.02980000
opls_146-188    H    0.95423992    0.43461986    0.41922027    0.05040000
opls_144-189    H    0.11635988    0.46197994    0.39981972    0.02980000
opls_144-190    H    0.53722006    0.89196991    0.41157949    0.02980000
opls_146-191    H    0.56671013    0.95394985    0.10709993    0.05040000
opls_146-192    H    0.05046981    0.56277994    0.11678018    0.05040000
opls_185-193    H    0.88739017    0.56925015    0.21820993    0.02720000
opls_185-194    H    0.37742989    0.98725015    0.28690062    0.02720000
opls_185-195    H    0.09428004    0.40227001    0.27358965    0.02720000
opls_144-196    H    0.97355988    0.65344995    0.08818013    0.11560000
opls_144-197    H    0.89904995    0.67247984    0.14756992    0.11560000
opls_144-198    H    0.42195988    0.87469007    0.37674963    0.11570000
opls_144-199    H    0.34664995    0.89205015    0.43092996    0.11560000
opls_144-200    H    0.03408987    0.31625998    0.32484037    0.11560000
opls_144-201    H    0.99001003    0.36281003    0.47008038    0.11560000
opls_144-202    H    0.66310010    0.04645015    0.82486041    0.11560000
opls_144-203    H    0.64873982    0.10153982    0.99675990    0.11560000
opls_146-204    H    0.21181986    0.44394985    0.91052032    0.05040000
opls_146-205    H    0.30483009    0.44322006    0.91246964    0.05040000
opls_146-206    H    0.30566981    0.57192016    0.59490948    0.05040000
opls_146-207    H    0.21401003    0.57231013    0.59268974    0.05040000
opls_547-208    H    0.33539017    0.40659017    0.70578035    0.05040000
opls_547-209    H    0.39953019    0.34245015    0.70439943    0.05040000
opls_547-210    H    0.40233019    0.66912016    0.81806971    0.05050000
opls_547-211    H    0.33675988    0.60351013    0.81837018    0.05040000
opls_547-212    H    0.66327984    0.60627001    0.70228986    0.05040000
opls_547-213    H    0.59920000    0.67046018    0.70461978    0.05040000
opls_547-214    H    0.59686018    0.34328987    0.81408969    0.05040000
opls_547-215    H    0.66247984    0.40894002    0.81464056    0.05040000
opls_146-216    H    0.56393019    0.70536008    0.91754013    0.05040000
opls_146-217    H    0.56002006    0.79745998    0.90838946    0.05040000
opls_146-218    H    0.43258014    0.78766981    0.58581015    0.05040000
opls_146-219    H    0.43595988    0.69597994    0.59816962    0.05040000
opls_146-220    H    0.69878997    0.44055005    0.60722012    0.05040000
opls_146-221    H    0.79073019    0.44410993    0.61857050    0.05040000
opls_146-222    H    0.78064995    0.57619017    0.91935048    0.05050000
opls_146-223    H    0.68922006    0.57126018    0.91353006    0.05040000
opls_146-224    H    0.43349007    0.31238997    0.92163032    0.05040000
opls_146-225    H    0.43265998    0.22074985    0.92211984    0.05040000
opls_146-226    H    0.56220983    0.21846981    0.60991061    0.05040000
opls_146-227    H    0.56286981    0.31143992    0.60734031    0.05040000
opls_144-228    H    0.54874985    0.12246018    0.63753036    0.02980000
opls_146-229    H    0.44069007    0.05441003    0.90736034    0.05040000
opls_185-230    H    0.61321003    0.98139017    0.54436988    0.02720000
opls_144-231    H    0.88550010    0.45280000    0.66573979    0.02980000
opls_146-232    H    0.95423992    0.43461986    0.91922027    0.05040000
opls_144-233    H    0.11635988    0.46197994    0.89981972    0.02980000
opls_144-234    H    0.53722006    0.89196991    0.91157949    0.02980000
opls_146-235    H    0.56671013    0.95394985    0.60709993    0.05050000
opls_146-236    H    0.05046981    0.56277994    0.61678018    0.05040000
opls_185-237    H    0.88739017    0.56925015    0.71820993    0.02720000
opls_185-238    H    0.37742989    0.98725015    0.78690062    0.02720000
opls_185-239    H    0.09428004    0.40227001    0.77358965    0.02720000
opls_144-240    H    0.97355988    0.65344995    0.58818013    0.11560000
opls_144-241    H    0.89904995    0.67247984    0.64756992    0.11560000
opls_144-242    H    0.42195988    0.87469007    0.87674963    0.11570000
opls_144-243    H    0.34664995    0.89205015    0.93092996    0.11560000
opls_144-244    H    0.03408987    0.31625998    0.82484037    0.11560000
opls_144-245    H    0.99001003    0.36281003    0.97008038    0.11560000
opls_144-246    H    0.66310010    0.04645015    0.32486041    0.11560000
opls_144-247    H    0.64873982    0.10153982    0.49675990    0.11560000
