#======================================================================
# Crystal Data Generated By AuToFF
#----------------------------------------------------------------------

data_AuToFF_phase_1

_cell_length_a                         22.0101
_cell_length_b                         22.0101
_cell_length_c                         3.7504
_cell_angle_alpha                      90.00
_cell_angle_beta                       90.00
_cell_angle_gamma                      120.00
_symmetry_space_group_name_H-M_alt     'P 1'
_symmetry_space_group_IT_number        1

loop_
_space_group_symop_operation_xyz
   'x, y, z'

loop_
   _atom_site_label
   _atom_site_type_symbol
   _atom_site_fract_x
   _atom_site_fract_y
   _atom_site_fract_z
   _atom_site_charge
opls_750-0    N    0.14305983    0.86207978    0.06913929    -0.18020000
opls_520-1    N    0.26765010    0.64086991    0.94637105    -0.36010000
opls_750-2    N    0.13791990    0.28098016    0.06913929    -0.18020000
opls_520-3    N    0.35912997    0.62678011    0.94637105    -0.36010000
opls_750-4    N    0.71901982    0.85694005    0.06913929    -0.18020000
opls_520-5    N    0.37321994    0.73234998    0.94637105    -0.36010000
opls_239-6    N    0.00000000    0.00000000    0.10281037    -0.22980000
opls_916-7    C    0.03784976    0.96631973    0.09884012    0.13460000
opls_145-8    C    0.01447011    0.90513978    0.25258106    -0.22950000
opls_145-9    C    0.04993994    0.87215989    0.24173955    -0.22960000
opls_145-10    C    0.10978992    0.89913967    0.07710111    0.16440000
opls_145-11    C    0.13448009    0.96072988    0.92689047    -0.23110000
opls_145-12    C    0.09877997    0.99347999    0.93797995    -0.22930000
opls_142-13    C    0.19672996    0.87672988    0.91162009    0.08710000
opls_145-14    C    0.22474968    0.83309961    0.92650917    0.00700000
opls_145-15    C    0.19042004    0.77098006    0.07426941    -0.23050000
opls_523-16    C    0.21715007    0.72974995    0.07954085    -0.23040000
opls_522-17    C    0.27917983    0.75037970    0.94235015    -0.01460000
opls_523-18    C    0.31380965    0.81283973    0.79846950    -0.23040000
opls_145-19    C    0.28654976    0.85357984    0.78807061    -0.23040000
opls_531-20    C    0.30741016    0.70675992    0.94653904    0.27000000
opls_916-21    C    0.03368017    0.07153024    0.09884012    0.13460000
opls_145-22    C    0.09486010    0.10932984    0.25258106    -0.22950000
opls_145-23    C    0.12783985    0.17778002    0.24173955    -0.22960000
opls_145-24    C    0.10085965    0.21064974    0.07710111    0.16440000
opls_145-25    C    0.03926997    0.17374986    0.92689047    -0.23110000
opls_145-26    C    0.00651992    0.10530021    0.93797995    -0.22930000
opls_142-27    C    0.12327007    0.32000004    0.91162009    0.08710000
opls_145-28    C    0.16690004    0.39164989    0.92650917    0.00700000
opls_145-29    C    0.22901962    0.41943969    0.07426941    -0.23050000
opls_523-30    C    0.27025002    0.48739987    0.07954085    -0.23040000
opls_522-31    C    0.24961995    0.52879996    0.94235015    -0.01460000
opls_523-32    C    0.18715986    0.50096977    0.79846950    -0.23040000
opls_145-33    C    0.14641975    0.43296972    0.78807061    -0.23040000
opls_531-34    C    0.29323992    0.60064969    0.94653904    0.27000000
opls_916-35    C    0.92847007    0.96215003    0.09884012    0.13460000
opls_145-36    C    0.89066998    0.98552985    0.25258106    -0.22950000
opls_145-37    C    0.82221994    0.95005957    0.24173955    -0.22960000
opls_145-38    C    0.78934991    0.89020954    0.07710111    0.16440000
opls_145-39    C    0.82624967    0.86551974    0.92689047    -0.23110000
opls_145-40    C    0.89470011    0.90121980    0.93797995    -0.22930000
opls_142-41    C    0.67999997    0.80327008    0.91162009    0.08710000
opls_145-42    C    0.60835002    0.77524997    0.92650917    0.00700000
opls_145-43    C    0.58056007    0.80957972    0.07426941    -0.23050000
opls_523-44    C    0.51259965    0.78284966    0.07954085    -0.23040000
opls_522-45    C    0.47119996    0.72081982    0.94235015    -0.01460000
opls_523-46    C    0.49902977    0.68618998    0.79846950    -0.23040000
opls_145-47    C    0.56702977    0.71344992    0.78807061    -0.23040000
opls_531-48    C    0.39935012    0.69258986    0.94653904    0.27000000
opls_146-49    H    0.96804979    0.88193991    0.37526930    0.21380000
opls_146-50    H    0.03080969    0.82504980    0.36127080    0.21410000
opls_146-51    H    0.18077993    0.98398956    0.79921875    0.21280000
opls_146-52    H    0.11933992    0.04046994    0.82217097    0.21380000
opls_144-53    H    0.22188980    0.92063977    0.76445979    0.10030000
opls_146-54    H    0.14286970    0.75446966    0.18464964    0.21410000
opls_526-55    H    0.18997961    0.68205963    0.19509119    0.21330000
opls_526-56    H    0.36135974    0.82934961    0.68765998    0.21330000
opls_146-57    H    0.31361005    0.90103986    0.67053914    0.21410000
opls_146-58    H    0.11806013    0.08611003    0.37526930    0.21380000
opls_146-59    H    0.17494996    0.20575973    0.36127080    0.21410000
opls_146-60    H    0.01600996    0.19678973    0.79921875    0.21280000
opls_146-61    H    0.95952998    0.07887024    0.82217097    0.21380000
opls_144-62    H    0.07936000    0.30125002    0.76445979    0.10030000
opls_146-63    H    0.24553000    0.38839985    0.18464964    0.21410000
opls_526-64    H    0.31794016    0.50791997    0.19509119    0.21330000
opls_526-65    H    0.17065020    0.53201013    0.68765998    0.21330000
opls_146-66    H    0.09896006    0.41256976    0.67053914    0.21410000
opls_146-67    H    0.91388982    0.03194954    0.37526930    0.21380000
opls_146-68    H    0.79424009    0.96918995    0.36127080    0.21410000
opls_146-69    H    0.80321004    0.81921967    0.79921875    0.21280000
opls_146-70    H    0.92113009    0.88065983    0.82217097    0.21380000
opls_144-71    H    0.69874994    0.77810969    0.76445979    0.10030000
opls_146-72    H    0.61160004    0.85712997    0.18464964    0.21410000
opls_526-73    H    0.49207997    0.81001988    0.19509119    0.21330000
opls_526-74    H    0.46798980    0.63863974    0.68765998    0.21330000
opls_146-75    H    0.58743008    0.68638987    0.67053914    0.21410000
