#======================================================================
# Crystal Data Generated By AuToFF
#----------------------------------------------------------------------

data_AuToFF_phase_1

_cell_length_a                         31.2852
_cell_length_b                         31.2852
_cell_length_c                         3.3187
_cell_angle_alpha                      90.00
_cell_angle_beta                       90.00
_cell_angle_gamma                      120.00
_symmetry_space_group_name_H-M_alt     'P 1'
_symmetry_space_group_IT_number        1

loop_
_space_group_symop_operation_xyz
   'x, y, z'

loop_
   _atom_site_label
   _atom_site_type_symbol
   _atom_site_fract_x
   _atom_site_fract_y
   _atom_site_fract_z
   _atom_site_charge
opls_700-0    C    0.02646000    0.50320000    0.00000000    0.07090000
opls_145-1    C    0.05890005    0.48348994    0.00000000    -0.09110000
opls_700-2    C    0.11108995    0.51396003    0.00000000    -0.02700000
opls_916-3    C    0.13311004    0.56686000    0.00000000    0.20670000
opls_145-4    C    0.10055997    0.58613010    0.00000000    -0.16200000
opls_145-5    C    0.04899010    0.55553009    0.00000000    -0.16420000
opls_142-6    C    0.22812001    0.59481992    0.00000000    0.05120000
opls_700-7    C    0.27781982    0.63032991    0.00000000    -0.05460000
opls_280-8    C    0.31459993    0.61239000    0.00000000    0.17020000
opls_700-9    C    0.97013012    0.46980008    0.00000000    0.07050000
opls_145-10    C    0.93799002    0.48981980    0.00000000    -0.11990000
opls_145-11    C    0.88626006    0.45938994    0.00000000    -0.15950000
opls_916-12    C    0.86365993    0.40710008    0.00000000    0.19250000
opls_700-13    C    0.89530993    0.38643002    0.00000000    -0.02940000
opls_145-14    C    0.94724998    0.41725001    0.00000000    -0.08780000
opls_142-15    C    0.77393991    0.39165004    0.00000000    0.05210000
opls_700-16    C    0.72297988    0.36244998    0.00000000    -0.05460000
opls_280-17    C    0.69328003    0.38846001    0.00000000    0.16890000
opls_261-18    C    0.51242993    0.65079993    0.00000000    0.25600000
opls_700-19    C    0.49679996    0.52325995    0.00000000    0.07090000
opls_145-20    C    0.51650996    0.57540993    0.00000000    -0.09110000
opls_700-21    C    0.48603993    0.59713004    0.00000000    -0.02700000
opls_916-22    C    0.43313997    0.56624989    0.00000000    0.20670000
opls_145-23    C    0.41386984    0.51442988    0.00000000    -0.16200000
opls_145-24    C    0.44447021    0.49346012    0.00000000    -0.16420000
opls_142-25    C    0.40518002    0.63329997    0.00000000    0.05120000
opls_700-26    C    0.36966988    0.64748994    0.00000000    -0.05460000
opls_280-27    C    0.38761006    0.70220988    0.00000000    0.17020000
opls_700-28    C    0.53019995    0.50032997    0.00000000    0.07050000
opls_145-29    C    0.51018003    0.44817002    0.00000000    -0.11990000
opls_145-30    C    0.54061012    0.42686993    0.00000000    -0.15950000
opls_916-31    C    0.59290008    0.45656014    0.00000000    0.19250000
opls_700-32    C    0.61356983    0.50887990    0.00000000    -0.02790000
opls_145-33    C    0.58274986    0.52999987    0.00000000    -0.08780000
opls_142-34    C    0.60834992    0.38228996    0.00000000    0.05210000
opls_700-35    C    0.63754990    0.36052998    0.00000000    -0.05460000
opls_280-36    C    0.61153995    0.30482015    0.00000000    0.16890000
opls_261-37    C    0.34919998    0.86162986    0.00000000    0.25600000
opls_700-38    C    0.47674004    0.97354005    0.00000000    0.07090000
opls_145-39    C    0.42458981    0.94109977    0.00000000    -0.09110000
opls_700-40    C    0.40286980    0.88890993    0.00000000    -0.02700000
opls_916-41    C    0.43374999    0.86689011    0.00000000    0.20670000
opls_145-42    C    0.48556987    0.89944002    0.00000000    -0.16200000
opls_145-43    C    0.50654002    0.95100979    0.00000000    -0.16420000
opls_142-44    C    0.36669997    0.77188011    0.00000000    0.05120000
opls_700-45    C    0.35250979    0.72217978    0.00000000    -0.05460000
opls_280-46    C    0.29779001    0.68540012    0.00000000    0.17020000
opls_700-47    C    0.49966993    0.02986996    0.00000000    0.07050000
opls_145-48    C    0.55182995    0.06201017    0.00000000    -0.11990000
opls_145-49    C    0.57313015    0.11374013    0.00000000    -0.15950000
opls_916-50    C    0.54344017    0.13634015    0.00000000    0.19250000
opls_700-51    C    0.49111992    0.10469008    0.00000000    -0.02790000
opls_145-52    C    0.47000016    0.05275011    0.00000000    -0.08780000
opls_142-53    C    0.61770985    0.22606000    0.00000000    0.05210000
opls_700-54    C    0.63946990    0.27702004    0.00000000    -0.05460000
opls_280-55    C    0.69518002    0.30671984    0.00000000    0.16890000
opls_261-56    C    0.13836990    0.48756984    0.00000000    0.25600000
opls_261-57    C    0.66681991    0.54241010    0.00000000    0.25380000
opls_261-58    C    0.45759009    0.12441010    0.00000000    0.25380000
opls_261-59    C    0.87559000    0.33317979    0.00000000    0.25380000
opls_238-60    N    0.18624998    0.60331006    0.00000000    -0.31860000
opls_262-61    N    0.15933979    0.46538984    0.00000000    -0.33710000
opls_238-62    N    0.80983980    0.37472992    0.00000000    -0.31780000
opls_238-63    N    0.39669007    0.58294007    0.00000000    -0.31860000
opls_262-64    N    0.53461007    0.69395005    0.00000000    -0.34620000
opls_238-65    N    0.62527006    0.43510983    0.00000000    -0.31780000
opls_238-66    N    0.41705994    0.81374987    0.00000000    -0.31860000
opls_262-67    N    0.30605014    0.84066011    0.00000000    -0.33700000
opls_238-68    N    0.56488995    0.19015988    0.00000000    -0.31770000
opls_262-69    N    0.70947001    0.56928011    0.00000000    -0.32620000
opls_262-70    N    0.43072021    0.14019011    0.00000000    -0.32620000
opls_262-71    N    0.85980997    0.29053015    0.00000000    -0.32610000
opls_281-72    O    0.56621000    0.28203005    0.00000000    -0.39580000
opls_281-73    O    0.43236012    0.73083010    0.00000000    -0.38670000
opls_281-74    O    0.71796996    0.28417999    0.00000000    -0.39580000
opls_281-75    O    0.26916988    0.70153002    0.00000000    -0.38670000
opls_281-76    O    0.71582004    0.43378997    0.00000000    -0.39570000
opls_281-77    O    0.29847000    0.56763988    0.00000000    -0.38670000
opls_146-78    H    0.04463998    0.44390004    0.00000000    0.12150000
opls_146-79    H    0.11532991    0.62604996    0.00000000    0.11650000
opls_146-80    H    0.02791018    0.57450013    0.00000000    0.12400000
opls_910-81    H    0.19312002    0.63957004    0.00000000    0.28970000
opls_144-82    H    0.21995012    0.55724008    0.00000000    0.12980000
opls_146-83    H    0.95150002    0.52923992    0.00000000    0.12300000
opls_146-84    H    0.86505003    0.47824999    0.00000000    0.12140000
opls_146-85    H    0.96873016    0.39867010    0.00000000    0.12140000
opls_910-86    H    0.79775999    0.33706998    0.00000000    0.29010000
opls_144-87    H    0.78875993    0.43122001    0.00000000    0.10400000
opls_146-88    H    0.55609991    0.60074010    0.00000000    0.12150000
opls_146-89    H    0.37394994    0.48927983    0.00000000    0.11650000
opls_146-90    H    0.42549994    0.45340997    0.00000000    0.12400000
opls_910-91    H    0.36042986    0.55354993    0.00000000    0.28970000
opls_144-92    H    0.44276009    0.66271004    0.00000000    0.12980000
opls_146-93    H    0.47076012    0.42226002    0.00000000    0.12300000
opls_146-94    H    0.52175007    0.38679985    0.00000000    0.12140000
opls_146-95    H    0.60133004    0.57005999    0.00000000    0.12140000
opls_910-96    H    0.66292999    0.46068987    0.00000000    0.29010000
opls_144-97    H    0.56877997    0.35754000    0.00000000    0.10400000
opls_146-98    H    0.39925978    0.95535986    0.00000000    0.12150000
opls_146-99    H    0.51071997    0.88466984    0.00000000    0.11650000
opls_146-100    H    0.54658987    0.97208990    0.00000000    0.12400000
opls_910-101    H    0.44645013    0.80688003    0.00000000    0.28970000
opls_144-102    H    0.33728978    0.78004989    0.00000000    0.12980000
opls_146-103    H    0.57774018    0.04850006    0.00000000    0.12300000
opls_146-104    H    0.61320022    0.13495016    0.00000000    0.12140000
opls_146-105    H    0.42993980    0.03126991    0.00000000    0.12140000
opls_910-106    H    0.53931002    0.20224015    0.00000000    0.29010000
opls_144-107    H    0.64246010    0.21124000    0.00000000    0.10400000
