#======================================================================
# Crystal Data Generated By AuToFF
#----------------------------------------------------------------------

data_AuToFF_phase_1

_cell_length_a                         37.2145
_cell_length_b                         37.2145
_cell_length_c                         4.0878
_cell_angle_alpha                      90.00
_cell_angle_beta                       90.00
_cell_angle_gamma                      120.00
_symmetry_space_group_name_H-M_alt     'P 1'
_symmetry_space_group_IT_number        1

loop_
_space_group_symop_operation_xyz
   'x, y, z'

loop_
   _atom_site_label
   _atom_site_type_symbol
   _atom_site_fract_x
   _atom_site_fract_y
   _atom_site_fract_z
   _atom_site_charge
opls_700-0    C    0.28952013    0.64628018    0.49646020    0.06610000
opls_145-1    C    0.31018001    0.62335992    0.49826068    -0.18210000
opls_700-2    C    0.24339006    0.62474999    0.47616077    0.06360000
opls_145-3    C    0.35812987    0.58181000    0.29091932    -0.13590000
opls_145-4    C    0.37901994    0.55950007    0.26175938    -0.17460000
opls_917-5    C    0.41737997    0.57371008    0.41402955    0.20940000
opls_145-6    C    0.43475011    0.61017013    0.59791086    -0.17400000
opls_145-7    C    0.41371994    0.63234012    0.63212975    -0.13550000
opls_701-8    C    0.42843008    0.51316994    0.53386907    0.08490000
opls_700-9    C    0.46534995    0.50617990    0.56207006    0.04930000
opls_145-10    C    0.45983990    0.46593999    0.58161114    -0.13620000
opls_145-11    C    0.49399992    0.45989010    0.58186066    -0.13360000
opls_423-12    C    0.39322002    0.47869011    0.36213122    0.21750000
opls_700-13    C    0.35372014    0.64324003    0.49646020    0.06610000
opls_145-14    C    0.37664012    0.68682013    0.49826068    -0.18200000
opls_700-15    C    0.37524990    0.61863991    0.47616077    0.06360000
opls_145-16    C    0.41819005    0.77632017    0.29091932    -0.13600000
opls_145-17    C    0.44049999    0.81952018    0.26175938    -0.17460000
opls_917-18    C    0.42629003    0.84367008    0.41402955    0.20940000
opls_145-19    C    0.38982991    0.82457996    0.59791086    -0.17400000
opls_145-20    C    0.36765997    0.78137995    0.63212975    -0.13550000
opls_701-21    C    0.48682991    0.91526000    0.53386907    0.08490000
opls_700-22    C    0.49382001    0.95916993    0.56207006    0.04930000
opls_145-23    C    0.53406008    0.99390016    0.58161114    -0.13620000
opls_145-24    C    0.54010998    0.03410997    0.58186066    -0.13370000
opls_423-25    C    0.52131004    0.91453022    0.36213122    0.21750000
opls_700-26    C    0.35676016    0.71048010    0.49646020    0.06610000
opls_145-27    C    0.31317987    0.68981994    0.49826068    -0.18210000
opls_700-28    C    0.38136004    0.75661010    0.47616077    0.06360000
opls_145-29    C    0.22367997    0.64187013    0.29091932    -0.13600000
opls_145-30    C    0.18047995    0.62098006    0.26175938    -0.17460000
opls_917-31    C    0.15633016    0.58262015    0.41402955    0.20940000
opls_145-32    C    0.17541997    0.56524992    0.59791086    -0.17400000
opls_145-33    C    0.21862009    0.58627993    0.63212975    -0.13550000
opls_701-34    C    0.08474001    0.57157006    0.53386907    0.08490000
opls_700-35    C    0.04083004    0.53465017    0.56207006    0.04930000
opls_145-36    C    0.00610018    0.54016017    0.58161114    -0.13620000
opls_145-37    C    0.96588983    0.50599993    0.58186066    -0.13370000
opls_423-38    C    0.08547009    0.60677998    0.36213122    0.21750000
opls_700-39    C    0.71048003    0.35372013    0.49646020    0.06610000
opls_145-40    C    0.68981999    0.37664008    0.49826068    -0.18210000
opls_700-41    C    0.75660994    0.37525001    0.47616077    0.06360000
opls_145-42    C    0.64187013    0.41819000    0.29091932    -0.13600000
opls_145-43    C    0.62098006    0.44049993    0.26175938    -0.17460000
opls_917-44    C    0.58262003    0.42628992    0.41402955    0.20940000
opls_145-45    C    0.56525004    0.38983018    0.59791086    -0.17400000
opls_145-46    C    0.58628006    0.36765988    0.63212975    -0.13550000
opls_701-47    C    0.57156992    0.48683006    0.53386907    0.08490000
opls_700-48    C    0.53465005    0.49382010    0.56207006    0.04930000
opls_145-49    C    0.54016010    0.53406001    0.58161114    -0.13620000
opls_145-50    C    0.50600008    0.54010990    0.58186066    -0.13370000
opls_423-51    C    0.60677998    0.52130989    0.36213122    0.21750000
opls_700-52    C    0.64627986    0.35675997    0.49646020    0.06610000
opls_145-53    C    0.62336003    0.31318018    0.49826068    -0.18210000
opls_700-54    C    0.62475010    0.38136009    0.47616077    0.06360000
opls_145-55    C    0.58181011    0.22368014    0.29091932    -0.13600000
opls_145-56    C    0.55950017    0.18048013    0.26175938    -0.17460000
opls_917-57    C    0.57370997    0.15632992    0.41402955    0.20940000
opls_145-58    C    0.61017009    0.17542004    0.59791086    -0.17400000
opls_145-59    C    0.63234003    0.21862005    0.63212975    -0.13550000
opls_701-60    C    0.51317009    0.08474000    0.53386907    0.08490000
opls_700-61    C    0.50617999    0.04083007    0.56207006    0.04940000
opls_145-62    C    0.46594008    0.00610015    0.58161114    -0.13620000
opls_145-63    C    0.45989002    0.96589003    0.58186066    -0.13370000
opls_423-64    C    0.47869012    0.08547009    0.36213122    0.21750000
opls_700-65    C    0.64323984    0.28951990    0.49646020    0.06610000
opls_145-66    C    0.68682013    0.31018006    0.49826068    -0.18210000
opls_700-67    C    0.61863996    0.24338990    0.47616077    0.06360000
opls_145-68    C    0.77632019    0.35813018    0.29091932    -0.13590000
opls_145-69    C    0.81952005    0.37901994    0.26175938    -0.17460000
opls_917-70    C    0.84366999    0.41738016    0.41402955    0.20950000
opls_145-71    C    0.82458003    0.43475008    0.59791086    -0.17400000
opls_145-72    C    0.78137991    0.41372007    0.63212975    -0.13550000
opls_701-73    C    0.91525999    0.42842994    0.53386907    0.08490000
opls_700-74    C    0.95917012    0.46535014    0.56207006    0.04930000
opls_145-75    C    0.99389997    0.45984014    0.58161114    -0.13620000
opls_145-76    C    0.03411017    0.49400007    0.58186066    -0.13370000
opls_423-77    C    0.91452991    0.39322002    0.36213122    0.21750000
opls_900-78    N    0.44002009    0.55247000    0.36595968    -0.42860000
opls_753-79    N    0.36565999    0.45166017    0.22642008    -0.30740000
opls_900-80    N    0.44752995    0.88754992    0.36595968    -0.42850000
opls_753-81    N    0.54833991    0.91399994    0.22642008    -0.30720000
opls_900-82    N    0.11244997    0.55998008    0.36595968    -0.42850000
opls_753-83    N    0.08599999    0.63434020    0.22642008    -0.30740000
opls_900-84    N    0.55997991    0.44753000    0.36595968    -0.42850000
opls_753-85    N    0.63434017    0.54834014    0.22642008    -0.30740000
opls_900-86    N    0.55247005    0.11245008    0.36595968    -0.42860000
opls_753-87    N    0.45166009    0.08600006    0.22642008    -0.30730000
opls_900-88    N    0.88755003    0.44001992    0.36595968    -0.42860000
opls_753-89    N    0.91400016    0.36566011    0.22642008    -0.30740000
opls_146-90    H    0.29228008    0.58985004    0.49429033    0.11590000
opls_146-91    H    0.32942001    0.57103017    0.15751015    0.11530000
opls_146-92    H    0.36607004    0.53187997    0.11158080    0.11230000
opls_146-93    H    0.46442986    0.62108990    0.71617985    0.11560000
opls_146-94    H    0.42732994    0.65986000    0.78389109    0.11290000
opls_146-95    H    0.48855990    0.42847990    0.59136944    0.11110000
opls_910-96    H    0.46126996    0.56253991    0.17239102    0.25690000
opls_702-97    H    0.41751993    0.51399994    0.78341895    0.06670000
opls_146-98    H    0.42902010    0.43896000    0.59053036    0.11080000
opls_146-99    H    0.41015016    0.70243013    0.49429033    0.11590000
opls_146-100    H    0.42897005    0.75839019    0.15751015    0.11530000
opls_146-101    H    0.46812002    0.83419002    0.11158080    0.11230000
opls_146-102    H    0.37891003    0.84333994    0.71617985    0.11560000
opls_146-103    H    0.34013989    0.76746999    0.78389109    0.11280000
opls_146-104    H    0.57152006    0.06007999    0.59136944    0.11110000
opls_910-105    H    0.43745997    0.89873001    0.17239102    0.25700000
opls_702-106    H    0.48599996    0.90352015    0.78341895    0.06670000
opls_146-107    H    0.56104007    0.99006010    0.59053036    0.11090000
opls_146-108    H    0.29757018    0.70772014    0.49429033    0.11590000
opls_146-109    H    0.24161009    0.67057995    0.15751015    0.11530000
opls_146-110    H    0.16580994    0.63393001    0.11158080    0.11230000
opls_146-111    H    0.15666012    0.53557016    0.71617985    0.11560000
opls_146-112    H    0.23252990    0.57267001    0.78389109    0.11280000
opls_146-113    H    0.93992003    0.51144011    0.59136944    0.11110000
opls_910-114    H    0.10127008    0.53873008    0.17239102    0.25700000
opls_702-115    H    0.09647984    0.58247990    0.78341895    0.06670000
opls_146-116    H    0.00993983    0.57097990    0.59053036    0.11080000
opls_146-117    H    0.70771992    0.41014996    0.49429033    0.11590000
opls_146-118    H    0.67058014    0.42897014    0.15751015    0.11530000
opls_146-119    H    0.63392996    0.46812003    0.11158080    0.11230000
opls_146-120    H    0.53557014    0.37891010    0.71617985    0.11560000
opls_146-121    H    0.57267006    0.34014000    0.78389109    0.11290000
opls_146-122    H    0.51144010    0.57152010    0.59136944    0.11110000
opls_910-123    H    0.53873004    0.43746009    0.17239102    0.25690000
opls_702-124    H    0.58248007    0.48600006    0.78341895    0.06680000
opls_146-125    H    0.57097990    0.56104000    0.59053036    0.11080000
opls_146-126    H    0.58984984    0.29756987    0.49429033    0.11620000
opls_146-127    H    0.57103011    0.24161012    0.15751015    0.11530000
opls_146-128    H    0.53187998    0.16580998    0.11158080    0.11230000
opls_146-129    H    0.62108997    0.15666006    0.71617985    0.11560000
opls_146-130    H    0.65986011    0.23253001    0.78389109    0.11280000
opls_146-131    H    0.42847994    0.93992001    0.59136944    0.11120000
opls_910-132    H    0.56254003    0.10126999    0.17239102    0.25690000
opls_702-133    H    0.51400020    0.09648016    0.78341895    0.06670000
opls_146-134    H    0.43895993    0.00993990    0.59053036    0.11080000
opls_146-135    H    0.70242997    0.29228017    0.49429033    0.11590000
opls_146-136    H    0.75838991    0.32942005    0.15751015    0.11240000
opls_146-137    H    0.83419006    0.36606999    0.11158080    0.11240000
opls_146-138    H    0.84334004    0.46443015    0.71617985    0.11560000
opls_146-139    H    0.76747010    0.42732999    0.78389109    0.11280000
opls_146-140    H    0.06007997    0.48855989    0.59136944    0.11110000
opls_910-141    H    0.89872992    0.46126992    0.17239102    0.25690000
opls_702-142    H    0.90352016    0.41752010    0.78341895    0.06670000
opls_146-143    H    0.99006017    0.42902010    0.59053036    0.11080000
