#======================================================================
# Crystal Data Generated By AuToFF
#----------------------------------------------------------------------

data_AuToFF_phase_1

_cell_length_a                         23.4586
_cell_length_b                         23.4586
_cell_length_c                         3.8991
_cell_angle_alpha                      90.00
_cell_angle_beta                       90.00
_cell_angle_gamma                      120.00
_symmetry_space_group_name_H-M_alt     'P 1'
_symmetry_space_group_IT_number        1

loop_
_space_group_symop_operation_xyz
   'x, y, z'

loop_
   _atom_site_label
   _atom_site_type_symbol
   _atom_site_fract_x
   _atom_site_fract_y
   _atom_site_fract_z
   _atom_site_charge
opls_916-0    C    0.07127002    0.03765996    0.11696032    0.19360000
opls_145-1    C    0.10542984    0.10074996    0.26377882    -0.13580000
opls_145-2    C    0.17398005    0.13773015    0.24888051    -0.11240000
opls_145-3    C    0.20962021    0.11202004    0.09053884    0.23710000
opls_145-4    C    0.17606993    0.04884981    0.94590034    -0.13570000
opls_145-5    C    0.10756977    0.01226980    0.95781078    -0.13570000
opls_142-6    C    0.31668025    0.12950008    0.95583083    0.09170000
opls_700-7    C    0.38807005    0.17191990    0.93761124    0.07700000
opls_145-8    C    0.42682973    0.14458986    0.84566951    -0.09270000
opls_145-9    C    0.49518014    0.18420988    0.82972994    -0.07550000
opls_700-10    C    0.52543016    0.25172994    0.90323921    0.08700000
opls_145-11    C    0.48609999    0.27887982    0.99292914    -0.09430000
opls_145-12    C    0.41787017    0.23924012    0.01075120    -0.09290000
opls_700-13    C    0.59771019    0.29349017    0.89304968    0.08210000
opls_145-14    C    0.73497007    0.37279026    0.89334975    -0.08240000
opls_916-15    C    0.96234006    0.03360990    0.11696032    0.19360000
opls_145-16    C    0.89924993    0.00468012    0.26377882    -0.13580000
opls_145-17    C    0.86227011    0.03625022    0.24888051    -0.11240000
opls_145-18    C    0.88798018    0.09760019    0.09053884    0.23710000
opls_145-19    C    0.95115022    0.12722008    0.94590034    -0.13570000
opls_145-20    C    0.98772997    0.09530000    0.95781078    -0.13570000
opls_142-21    C    0.87049996    0.18717999    0.95583083    0.09170000
opls_700-22    C    0.82808010    0.21615014    0.93761124    0.07700000
opls_145-23    C    0.85540999    0.28224027    0.84566951    -0.09270000
opls_145-24    C    0.81579007    0.31097021    0.82972994    -0.07550000
opls_700-25    C    0.74827017    0.27370010    0.90323921    0.08700000
opls_145-26    C    0.72112005    0.20722012    0.99292914    -0.09420000
opls_145-27    C    0.76076000    0.17862997    0.01075120    -0.09290000
opls_700-28    C    0.70651023    0.30422027    0.89304968    0.08210000
opls_145-29    C    0.62721010    0.36218026    0.89334975    -0.08240000
opls_916-30    C    0.96638991    0.92873014    0.11696032    0.19360000
opls_145-31    C    0.99531980    0.89456992    0.26377882    -0.13580000
opls_145-32    C    0.96375009    0.82602012    0.24888051    -0.11240000
opls_145-33    C    0.90240028    0.79038027    0.09053884    0.23730000
opls_145-34    C    0.87277985    0.82393012    0.94590034    -0.13570000
opls_145-35    C    0.90470026    0.89243020    0.95781078    -0.13570000
opls_142-36    C    0.81281979    0.68331993    0.95583083    0.09180000
opls_700-37    C    0.78384985    0.61192996    0.93761124    0.07700000
opls_145-38    C    0.71775985    0.57316987    0.84566951    -0.09270000
opls_145-39    C    0.68902979    0.50481991    0.82972994    -0.07550000
opls_700-40    C    0.72630010    0.47456996    0.90323921    0.08710000
opls_145-41    C    0.79277996    0.51390006    0.99292914    -0.09430000
opls_145-42    C    0.82136984    0.58212992    0.01075120    -0.09290000
opls_700-43    C    0.69577983    0.40229005    0.89304968    0.08210000
opls_145-44    C    0.63782008    0.26502997    0.89334975    -0.08240000
opls_750-45    N    0.27966995    0.15141019    0.07408889    -0.24380000
opls_750-46    N    0.84858994    0.12826016    0.07408889    -0.24390000
opls_750-47    N    0.87173993    0.72033015    0.07408889    -0.24390000
opls_239-48    N    0.00000000    0.00000000    0.12385935    -0.12360000
opls_146-49    H    0.07712981    0.12225004    0.39693006    0.04940000
opls_146-50    H    0.20102982    0.18911002    0.36619989    0.04940000
opls_146-51    H    0.20483983    0.02730986    0.81818881    0.04940000
opls_146-52    H    0.08100996    0.96122022    0.83658024    0.04940000
opls_144-53    H    0.29362989    0.07638019    0.86399938    0.02920000
opls_146-54    H    0.40266002    0.08988006    0.78355005    0.04940000
opls_146-55    H    0.52681984    0.16177998    0.75663102    0.04940000
opls_146-56    H    0.50990002    0.33369004    0.05179913    0.04940000
opls_146-57    H    0.38631994    0.26172022    0.08501962    0.04940000
opls_146-58    H    0.79082008    0.40546000    0.89383960    0.04940000
opls_146-59    H    0.87774981    0.95487981    0.39693006    0.04940000
opls_146-60    H    0.81088987    0.01191982    0.36619989    0.04940000
opls_146-61    H    0.97268979    0.17752984    0.81818881    0.04940000
opls_146-62    H    0.03877987    0.11978988    0.83658024    0.04940000
opls_144-63    H    0.92362006    0.21725027    0.86399938    0.02920000
opls_146-64    H    0.91012005    0.31278014    0.78355005    0.04940000
opls_146-65    H    0.83821988    0.36504011    0.75663102    0.04940000
opls_146-66    H    0.66631009    0.17621017    0.05179913    0.04940000
opls_146-67    H    0.73827978    0.12459994    0.08501962    0.04940000
opls_146-68    H    0.59453978    0.38535982    0.89383960    0.04940000
opls_146-69    H    0.04511995    0.92287015    0.39693006    0.04940000
opls_146-70    H    0.98807988    0.79897016    0.36619989    0.04940000
opls_146-71    H    0.82246996    0.79516030    0.81818881    0.04940000
opls_146-72    H    0.88020999    0.91899040    0.83658024    0.04940000
opls_144-73    H    0.78274987    0.70637004    0.86399938    0.02920000
opls_146-74    H    0.68722019    0.59734029    0.78355005    0.04940000
opls_146-75    H    0.63495985    0.47317991    0.75663102    0.04940000
opls_146-76    H    0.82379014    0.49010029    0.05179913    0.04940000
opls_146-77    H    0.87540010    0.61368033    0.08501962    0.04940000
opls_146-78    H    0.61464013    0.20918017    0.89383960    0.04940000
