#======================================================================
# Crystal Data Generated By AuToFF
#----------------------------------------------------------------------

data_AuToFF_phase_1

_cell_length_a                         20.0800
_cell_length_b                         3.4900
_cell_length_c                         18.3500
_cell_angle_alpha                      90.00
_cell_angle_beta                       92.45
_cell_angle_gamma                      90.00
_symmetry_space_group_name_H-M_alt     'P 1'
_symmetry_space_group_IT_number        1

loop_
_space_group_symop_operation_xyz
   'x, y, z'

loop_
   _atom_site_label
   _atom_site_type_symbol
   _atom_site_fract_x
   _atom_site_fract_y
   _atom_site_fract_z
   _atom_site_charge
opls_145-0    C    0.82561005    0.50000000    0.00885987    -0.07560000
opls_700-1    C    0.86405021    0.50000000    0.07432024    -0.01150000
opls_700-2    C    0.85313029    0.50000000    0.94004003    -0.01150000
opls_166-3    C    0.93464010    0.50000000    0.07040003    0.19600000
opls_700-4    C    0.92377015    0.50000000    0.93680001    0.02670000
opls_700-5    C    0.96449014    0.50000000    0.00180001    -0.04500000
opls_145-6    C    0.95494019    0.50000000    0.87025963    0.08500000
opls_166-7    C    0.80571022    0.50000000    0.87438002    0.33310000
opls_700-8    C    0.82765013    0.50000000    0.14423972    0.05160000
opls_145-9    C    0.82849998    0.50000000    0.80322998    -0.10290000
opls_523-10    C    0.86176985    0.50000000    0.21255011    -0.08510000
opls_145-11    C    0.78445023    0.50000000    0.74268964    -0.10300000
opls_522-12    C    0.82790989    0.50000000    0.27710993    -0.15300000
opls_145-13    C    0.71546003    0.50000000    0.75137987    0.14670000
opls_521-14    C    0.75854015    0.50000000    0.27531973    0.39080000
opls_145-15    C    0.69156989    0.50000000    0.82186009    0.08670000
opls_521-16    C    0.75740990    0.50000000    0.14296008    0.04260000
opls_700-17    C    0.63537020    0.50000000    0.42464967    -0.05390000
opls_145-18    C    0.56615990    0.50000000    0.42971969    -0.07560000
opls_700-19    C    0.64724987    0.50000000    0.55752969    -0.04070000
opls_145-20    C    0.57790020    0.50000000    0.56147989    -0.07560000
opls_700-21    C    0.53671019    0.50000000    0.49776990    0.08260000
opls_231-22    C    0.67616020    0.50000000    0.48930003    0.43860000
opls_142-23    C    0.66274002    0.50000000    0.35123980    0.01730000
opls_142-24    C    0.69110998    0.50000000    0.62357970    0.01690000
opls_145-25    C    0.17438993    0.50000000    0.99113959    -0.07560000
opls_700-26    C    0.13595028    0.50000000    0.92567976    -0.01150000
opls_700-27    C    0.14687021    0.50000000    0.05995997    -0.01150000
opls_166-28    C    0.06535990    0.50000000    0.92959997    0.19600000
opls_700-29    C    0.07622985    0.50000000    0.06319999    0.02670000
opls_700-30    C    0.03551036    0.50000000    0.99819999    -0.04500000
opls_145-31    C    0.04505979    0.50000000    0.12973982    0.08500000
opls_166-32    C    0.19428978    0.50000000    0.12561998    0.33310000
opls_700-33    C    0.17235035    0.50000000    0.85575973    0.05160000
opls_145-34    C    0.17150002    0.50000000    0.19677002    -0.10290000
opls_523-35    C    0.13823015    0.50000000    0.78744989    -0.08510000
opls_145-36    C    0.21555025    0.50000000    0.25730981    -0.10300000
opls_522-37    C    0.17209011    0.50000000    0.72289007    -0.15300000
opls_145-38    C    0.28453997    0.50000000    0.24862013    0.14670000
opls_521-39    C    0.24146032    0.50000000    0.72467972    0.39080000
opls_145-40    C    0.30843011    0.50000000    0.17813991    0.08670000
opls_521-41    C    0.24259010    0.50000000    0.85703992    0.04260000
opls_700-42    C    0.36463027    0.50000000    0.57534979    -0.05390000
opls_145-43    C    0.43384008    0.50000000    0.57027976    -0.07560000
opls_700-44    C    0.35275011    0.50000000    0.44246977    -0.03970000
opls_145-45    C    0.42210030    0.50000000    0.43852011    -0.07560000
opls_700-46    C    0.46329031    0.50000000    0.50223010    0.08260000
opls_231-47    C    0.32384030    0.50000000    0.51069997    0.43860000
opls_142-48    C    0.33725996    0.50000000    0.64875966    0.01730000
opls_142-49    C    0.30889000    0.50000000    0.37641976    0.01690000
opls_180-50    O    0.97632014    0.50000000    0.13323021    -0.12600000
opls_180-51    O    0.73627029    0.50000000    0.88269988    -0.14220000
opls_272-52    O    0.74427994    0.50000000    0.48645001    -0.22560000
opls_180-53    O    0.02368036    0.50000000    0.86676979    -0.12600000
opls_180-54    O    0.26373021    0.50000000    0.11730012    -0.14220000
opls_272-55    O    0.25572006    0.50000000    0.51354999    -0.22560000
opls_520-56    N    0.72297987    0.50000000    0.20782972    -0.23190000
opls_750-57    N    0.72649000    0.50000000    0.34330994    -0.27350000
opls_750-58    N    0.66962988    0.50000000    0.68922007    -0.26300000
opls_520-59    N    0.27702011    0.50000000    0.79216974    -0.23190000
opls_750-60    N    0.27351000    0.50000000    0.65669006    -0.27350000
opls_750-61    N    0.33037012    0.50000000    0.31077993    -0.26300000
opls_146-62    H    0.76889002    0.50000000    0.00992024    0.05230000
opls_146-63    H    0.92367023    0.50000000    0.81691988    -0.16600000
opls_146-64    H    0.88429010    0.50000000    0.79401993    -0.08830000
opls_526-65    H    0.91859023    0.50000000    0.21606013    0.05230000
opls_146-66    H    0.80438012    0.50000000    0.68544005    0.05230000
opls_525-67    H    0.85698006    0.50000000    0.33184987    0.05230000
opls_146-68    H    0.63560012    0.50000000    0.82998959    0.02830000
opls_524-69    H    0.72858984    0.50000000    0.08807013    0.03090000
opls_146-70    H    0.53255019    0.50000000    0.37805995    0.05230000
opls_146-71    H    0.55426022    0.50000000    0.61687002    0.05230000
opls_144-72    H    0.62762024    0.50000000    0.30075006    0.03090000
opls_144-73    H    0.74753012    0.50000000    0.61882003    0.03090000
opls_146-74    H    0.23110998    0.50000000    0.99007976    0.05230000
opls_146-75    H    0.07633026    0.50000000    0.18308012    -0.16600000
opls_146-76    H    0.11570990    0.50000000    0.20598007    -0.08830000
opls_526-77    H    0.08141026    0.50000000    0.78393987    0.05230000
opls_146-78    H    0.19561988    0.50000000    0.31455995    0.05230000
opls_525-79    H    0.14301994    0.50000000    0.66815013    0.05230000
opls_146-80    H    0.36439986    0.50000000    0.17000987    0.02830000
opls_524-81    H    0.27141016    0.50000000    0.91192987    0.03090000
opls_146-82    H    0.46745031    0.50000000    0.62194005    0.05230000
opls_146-83    H    0.44574028    0.50000000    0.38312998    0.05230000
opls_144-84    H    0.37238026    0.50000000    0.69924994    0.03090000
opls_144-85    H    0.25246988    0.50000000    0.38117997    0.03090000
