#======================================================================
# Crystal Data Generated By AuToFF
#----------------------------------------------------------------------

data_AuToFF_phase_1

_cell_length_a                         20.8320
_cell_length_b                         20.8320
_cell_length_c                         3.4560
_cell_angle_alpha                      90.00
_cell_angle_beta                       90.00
_cell_angle_gamma                      120.00
_symmetry_space_group_name_H-M_alt     'P 1'
_symmetry_space_group_IT_number        1

loop_
_space_group_symop_operation_xyz
   'x, y, z'

loop_
   _atom_site_label
   _atom_site_type_symbol
   _atom_site_fract_x
   _atom_site_fract_y
   _atom_site_fract_z
   _atom_site_charge
opls_145-0    C    0.56987999    0.00000000    0.50000000    -0.32800000
opls_145-1    C    0.00000006    0.56988012    0.50000000    -0.32800000
opls_145-2    C    0.43011994    0.43011988    0.50000000    -0.32800000
opls_145-3    C    0.43012001    0.00000000    0.50000000    -0.32800000
opls_145-4    C    0.99999994    0.43011988    0.50000000    -0.32800000
opls_145-5    C    0.56988006    0.56988012    0.50000000    -0.32800000
opls_166-6    C    0.56626013    0.06481001    0.50000000    0.16880000
opls_166-7    C    0.93518978    0.50145003    0.50000000    0.16880000
opls_166-8    C    0.49855009    0.43373996    0.50000000    0.16880000
opls_166-9    C    0.43373987    0.93518999    0.50000000    0.16880000
opls_166-10    C    0.06481022    0.49854997    0.50000000    0.16880000
opls_166-11    C    0.50144991    0.56626004    0.50000000    0.16880000
opls_166-12    C    0.06481013    0.56626004    0.50000000    0.16880000
opls_166-13    C    0.50145012    0.93518999    0.50000000    0.16880000
opls_166-14    C    0.43373975    0.49854997    0.50000000    0.16880000
opls_166-15    C    0.93518987    0.43373996    0.50000000    0.16880000
opls_166-16    C    0.49854988    0.06481001    0.50000000    0.16880000
opls_166-17    C    0.56626025    0.50145003    0.50000000    0.16880000
opls_145-18    C    0.29426011    0.58852982    0.50000000    -0.10310000
opls_145-19    C    0.41147013    0.70573980    0.50000000    -0.10310000
opls_145-20    C    0.29426007    0.70573980    0.50000000    -0.10310000
opls_145-21    C    0.70573989    0.41147018    0.50000000    -0.10310000
opls_145-22    C    0.58852987    0.29426020    0.50000000    -0.10310000
opls_145-23    C    0.70573993    0.29426020    0.50000000    -0.10310000
opls_145-24    C    0.62828002    0.25656004    0.50000000    -0.26030000
opls_145-25    C    0.74344029    0.37172026    0.50000000    -0.26030000
opls_145-26    C    0.62827996    0.37172026    0.50000000    -0.26030000
opls_145-27    C    0.37171998    0.74343996    0.50000000    -0.26030000
opls_145-28    C    0.25655998    0.62828030    0.50000000    -0.26030000
opls_145-29    C    0.37172031    0.62828030    0.50000000    -0.26030000
opls_167-30    O    0.62447986    0.13284988    0.50000000    -0.33630000
opls_167-31    O    0.86715006    0.49163019    0.50000000    -0.33630000
opls_167-32    O    0.50837008    0.37551993    0.50000000    -0.33630000
opls_167-33    O    0.37552014    0.86715012    0.50000000    -0.33630000
opls_167-34    O    0.13284994    0.50836981    0.50000000    -0.33630000
opls_167-35    O    0.49162992    0.62448007    0.50000000    -0.33630000
opls_167-36    O    0.13285016    0.62448007    0.50000000    -0.33630000
opls_167-37    O    0.49162998    0.86715012    0.50000000    -0.33630000
opls_167-38    O    0.37551987    0.50836981    0.50000000    -0.33630000
opls_167-39    O    0.86714984    0.37551993    0.50000000    -0.33630000
opls_167-40    O    0.50837002    0.13284988    0.50000000    -0.33630000
opls_167-41    O    0.62448013    0.49163019    0.50000000    -0.33630000
opls_146-42    H    0.26566992    0.53133023    0.50000000    0.23660000
opls_146-43    H    0.46866998    0.73433017    0.50000000    0.23660000
opls_146-44    H    0.26567027    0.73433017    0.50000000    0.23660000
opls_146-45    H    0.73433008    0.46866977    0.50000000    0.23660000
opls_146-46    H    0.53133002    0.26566983    0.50000000    0.23660000
opls_146-47    H    0.73432973    0.26566983    0.50000000    0.23660000
opls_146-48    H    0.38123004    0.38123024    0.50000000    0.23670000
opls_146-49    H    0.61877016    0.00000000    0.50000000    0.23670000
opls_146-50    H    0.00000008    0.61877031    0.50000000    0.23670000
opls_146-51    H    0.61877024    0.61877031    0.50000000    0.23670000
opls_146-52    H    0.38122984    0.00000000    0.50000000    0.23670000
opls_146-53    H    0.00000020    0.38123024    0.50000000    0.23670000
MOF2_B_2-54    B    0.58769025    0.17539011    0.50000000    0.55310000
MOF2_B_2-55    B    0.82460975    0.41230993    0.50000000    0.55310000
MOF2_B_2-56    B    0.58769010    0.41230993    0.50000000    0.55310000
MOF2_B_2-57    B    0.41230975    0.82460989    0.50000000    0.55310000
MOF2_B_2-58    B    0.17539025    0.58769007    0.50000000    0.55310000
MOF2_B_2-59    B    0.41230990    0.58769007    0.50000000    0.55310000
