#======================================================================
# Crystal Data Generated By AuToFF
#----------------------------------------------------------------------

data_AuToFF_phase_1

_cell_length_a                         15.0911
_cell_length_b                         15.0911
_cell_length_c                         3.5988
_cell_angle_alpha                      90.00
_cell_angle_beta                       90.00
_cell_angle_gamma                      120.00
_symmetry_space_group_name_H-M_alt     'P 1'
_symmetry_space_group_IT_number        1

loop_
_space_group_symop_operation_xyz
   'x, y, z'

loop_
   _atom_site_label
   _atom_site_type_symbol
   _atom_site_fract_x
   _atom_site_fract_y
   _atom_site_fract_z
   _atom_site_charge
MOF2_B_2-0    B    0.44674020    0.55326001    0.50000000    0.60820000
MOF2_B_2-1    B    0.44673999    0.89347998    0.50000000    0.60820000
MOF2_B_2-2    B    0.10651981    0.55326001    0.50000000    0.60820000
opls_145-3    C    0.38701997    0.61297944    0.50000000    -0.23620000
opls_145-4    C    0.38701979    0.77403958    0.50000000    -0.23620000
opls_145-5    C    0.22595948    0.61297944    0.50000000    -0.23620000
opls_700-6    C    0.66692972    0.23860993    0.50000000    0.03740000
opls_166-7    C    0.57119989    0.05219033    0.50000000    0.18690000
opls_145-8    C    0.66411004    0.14262989    0.50000000    -0.22860000
opls_700-9    C    0.76138967    0.42831969    0.50000000    0.03740000
opls_166-10    C    0.94780976    0.51900946    0.50000000    0.18690000
opls_145-11    C    0.85736987    0.52148014    0.50000000    -0.22860000
opls_700-12    C    0.57167956    0.33306961    0.50000000    0.03740000
opls_166-13    C    0.48099035    0.42880021    0.50000000    0.18680000
opls_145-14    C    0.47852009    0.33588996    0.50000000    -0.22860000
opls_700-15    C    0.76139005    0.33306961    0.50000000    0.03740000
opls_166-16    C    0.94780986    0.42880021    0.50000000    0.18690000
opls_145-17    C    0.85736988    0.33588996    0.50000000    -0.22860000
opls_700-18    C    0.57168021    0.23860993    0.50000000    0.03740000
opls_166-19    C    0.48099043    0.05219033    0.50000000    0.18670000
opls_145-20    C    0.47851986    0.14262989    0.50000000    -0.22860000
opls_700-21    C    0.66693002    0.42831969    0.50000000    0.03740000
opls_166-22    C    0.57119970    0.51900946    0.50000000    0.18680000
opls_145-23    C    0.66411027    0.52148014    0.50000000    -0.22860000
opls_145-24    C    0.44043987    0.72021948    0.50000000    -0.02970000
opls_145-25    C    0.27977961    0.72021948    0.50000000    -0.02970000
opls_145-26    C    0.27977976    0.55955952    0.50000000    -0.02970000
opls_167-27    O    0.55851964    0.95471977    0.50000000    -0.33060000
opls_167-28    O    0.04527982    0.60379990    0.50000000    -0.33060000
opls_167-29    O    0.39619949    0.44147956    0.50000000    -0.33050000
opls_167-30    O    0.04528007    0.44147956    0.50000000    -0.33050000
opls_167-31    O    0.39620013    0.95471977    0.50000000    -0.33050000
opls_167-32    O    0.55852008    0.60379990    0.50000000    -0.33050000
opls_146-33    H    0.73066001    0.13414970    0.50000000    0.10320000
opls_146-34    H    0.86584957    0.59650952    0.50000000    0.10320000
opls_146-35    H    0.40349004    0.26934001    0.50000000    0.10320000
opls_146-36    H    0.86584997    0.26934001    0.50000000    0.10320000
opls_146-37    H    0.40348969    0.13414970    0.50000000    0.10320000
opls_146-38    H    0.73065995    0.59650952    0.50000000    0.10320000
opls_146-39    H    0.23829010    0.47658019    0.50000000    0.12110000
opls_146-40    H    0.52341977    0.76170990    0.50000000    0.12110000
opls_146-41    H    0.23829013    0.76170990    0.50000000    0.12110000
