#======================================================================
# Crystal Data Generated By AuToFF
#----------------------------------------------------------------------

data_AuToFF_phase_1

_cell_length_a                         23.1146
_cell_length_b                         23.1146
_cell_length_c                         3.5350
_cell_angle_alpha                      90.00
_cell_angle_beta                       90.00
_cell_angle_gamma                      120.00
_symmetry_space_group_name_H-M_alt     'P 1'
_symmetry_space_group_IT_number        1

loop_
_space_group_symop_operation_xyz
   'x, y, z'

loop_
   _atom_site_label
   _atom_site_type_symbol
   _atom_site_fract_x
   _atom_site_fract_y
   _atom_site_fract_z
   _atom_site_charge
opls_641-0    N    0.30528008    0.70604007    0.50000000    -0.35730000
opls_641-1    N    0.29395983    0.59923978    0.50000000    -0.35730000
opls_641-2    N    0.40076009    0.69472016    0.50000000    -0.35730000
opls_642-3    C    0.26575000    0.63862017    0.50000000    0.39570000
opls_142-4    C    0.39071989    0.58373010    0.50000000    -0.16230000
opls_142-5    C    0.45649018    0.60830020    0.50000000    -0.07400000
opls_700-6    C    0.48670009    0.56552983    0.50000000    0.12890000
opls_145-7    C    0.55636013    0.59567995    0.50000000    -0.09250000
opls_145-8    C    0.58679015    0.55646991    0.50000000    -0.09260000
opls_700-9    C    0.54760003    0.48683998    0.50000000    0.15510000
opls_145-10    C    0.47797006    0.45637015    0.50000000    -0.09260000
opls_145-11    C    0.44754000    0.49556021    0.50000000    -0.07420000
opls_261-12    C    0.57884994    0.44662983    0.50000000    -0.07010000
opls_261-13    C    0.60508009    0.41281997    0.50000000    -0.06960000
opls_700-14    C    0.63625983    0.37256985    0.50000000    0.13420000
opls_145-15    C    0.70591008    0.40299023    0.50000000    -0.07930000
opls_642-16    C    0.36137976    0.62712991    0.50000000    0.39570000
opls_142-17    C    0.41627008    0.80699007    0.50000000    -0.16230000
opls_142-18    C    0.39169981    0.84818984    0.50000000    -0.07400000
opls_700-19    C    0.43447004    0.92117028    0.50000000    0.12890000
opls_145-20    C    0.40432011    0.96068005    0.50000000    -0.09250000
opls_145-21    C    0.44352993    0.03031997    0.50000000    -0.09260000
opls_700-22    C    0.51316006    0.06075983    0.50000000    0.15510000
opls_145-23    C    0.54363002    0.02160024    0.50000000    -0.09270000
opls_145-24    C    0.50443989    0.95197981    0.50000000    -0.07420000
opls_261-25    C    0.55337006    0.13222013    0.50000000    -0.07010000
opls_261-26    C    0.58717986    0.19226010    0.50000000    -0.06960000
opls_700-27    C    0.62743000    0.26368992    0.50000000    0.13410000
opls_145-28    C    0.59700997    0.30291995    0.50000000    -0.07930000
opls_642-29    C    0.37286981    0.73424992    0.50000000    0.39570000
opls_142-30    C    0.19301003    0.60927983    0.50000000    -0.16230000
opls_142-31    C    0.15181001    0.54350996    0.50000000    -0.07400000
opls_700-32    C    0.07882987    0.51329989    0.50000000    0.12880000
opls_145-33    C    0.03932019    0.44363999    0.50000000    -0.09250000
opls_145-34    C    0.96967991    0.41321012    0.50000000    -0.09260000
opls_700-35    C    0.93923990    0.45240019    0.50000000    0.15510000
opls_145-36    C    0.97840017    0.52203011    0.50000000    -0.09260000
opls_145-37    C    0.04802011    0.55245998    0.50000000    -0.07420000
opls_261-38    C    0.86777999    0.42115004    0.50000000    -0.07010000
opls_261-39    C    0.80774005    0.39491993    0.50000000    -0.06960000
opls_700-40    C    0.73631016    0.36374023    0.50000000    0.13420000
opls_145-41    C    0.69707995    0.29408982    0.50000000    -0.07930000
opls_144-42    H    0.35695016    0.52713006    0.50000000    0.05010000
opls_144-43    H    0.49179000    0.66464996    0.50000000    0.05010000
opls_146-44    H    0.58834005    0.65247981    0.50000000    0.05010000
opls_146-45    H    0.64358978    0.58128978    0.50000000    0.05010000
opls_146-46    H    0.44602969    0.39956978    0.50000000    0.05010000
opls_146-47    H    0.39073988    0.47072984    0.50000000    0.05010000
opls_146-48    H    0.73792004    0.45978011    0.50000000    0.05010000
opls_144-49    H    0.47287001    0.82982022    0.50000000    0.05010000
opls_144-50    H    0.33535023    0.82714010    0.50000000    0.05010000
opls_146-51    H    0.34752005    0.93586018    0.50000000    0.05010000
opls_146-52    H    0.41870979    0.06229996    0.50000000    0.05010000
opls_146-53    H    0.60043017    0.04646008    0.50000000    0.05010000
opls_146-54    H    0.52926979    0.92000981    0.50000000    0.05010000
opls_146-55    H    0.54021994    0.27814004    0.50000000    0.05010000
opls_144-56    H    0.17018007    0.64305022    0.50000000    0.05010000
opls_144-57    H    0.17285978    0.50820993    0.50000000    0.05010000
opls_146-58    H    0.06413990    0.41166001    0.50000000    0.05010000
opls_146-59    H    0.93769999    0.35641026    0.50000000    0.05010000
opls_146-60    H    0.95354015    0.55397014    0.50000000    0.05010000
opls_146-61    H    0.07999008    0.60925984    0.50000000    0.05010000
opls_146-62    H    0.72186002    0.26207986    0.50000000    0.05010000
