#======================================================================
# Crystal Data Generated By AuToFF
#----------------------------------------------------------------------

data_AuToFF_phase_1

_cell_length_a                         31.3283
_cell_length_b                         31.3283
_cell_length_c                         7.5183
_cell_angle_alpha                      90.00
_cell_angle_beta                       90.00
_cell_angle_gamma                      120.00
_symmetry_space_group_name_H-M_alt     'P 1'
_symmetry_space_group_IT_number        1

loop_
_space_group_symop_operation_xyz
   'x, y, z'

loop_
   _atom_site_label
   _atom_site_type_symbol
   _atom_site_fract_x
   _atom_site_fract_y
   _atom_site_fract_z
   _atom_site_charge
MOF2_B_2-0    B    0.55700993    0.44299015    0.00000000    0.57370000
MOF2_B_2-1    B    0.55701004    0.11402007    0.00000000    0.57370000
MOF2_B_2-2    B    0.88598022    0.44299015    0.00000000    0.57370000
MOF2_B_2-3    B    0.44299026    0.55701022    0.00000000    0.57370000
MOF2_B_2-4    B    0.44299015    0.88598030    0.00000000    0.57370000
MOF2_B_2-5    B    0.11401996    0.55701022    0.00000000    0.57370000
opls_145-6    C    0.52779021    0.47221012    0.00000000    -0.20410000
opls_145-7    C    0.52779006    0.05558013    0.00000000    -0.20410000
opls_145-8    C    0.94441991    0.47221012    0.00000000    -0.20410000
opls_145-9    C    0.47220997    0.52779025    0.00000000    -0.20410000
opls_145-10    C    0.47221012    0.94442024    0.00000000    -0.20410000
opls_145-11    C    0.05558028    0.52779025    0.00000000    -0.20410000
opls_700-12    C    0.28159019    0.64079009    0.10277988    0.07480000
opls_166-13    C    0.19057001    0.59527996    0.90302994    0.18260000
opls_700-14    C    0.35919990    0.64079009    0.10277988    0.07480000
opls_166-15    C    0.40470994    0.59527996    0.90302994    0.18290000
opls_700-16    C    0.35920001    0.71841024    0.10277988    0.07480000
opls_166-17    C    0.40470996    0.80943014    0.90302994    0.18260000
opls_700-18    C    0.71840994    0.35919996    0.10277988    0.07480000
opls_166-19    C    0.80943012    0.40471009    0.90302994    0.18260000
opls_700-20    C    0.64079002    0.35919996    0.10277988    0.07480000
opls_166-21    C    0.59527997    0.40471009    0.90302994    0.18260000
opls_700-22    C    0.64078996    0.28159013    0.10277988    0.07480000
opls_166-23    C    0.59527982    0.19056986    0.90302994    0.18260000
opls_700-24    C    0.64078996    0.28159013    0.89722012    0.07480000
opls_166-25    C    0.59527982    0.19056986    0.09697006    0.18260000
opls_700-26    C    0.64079002    0.35919996    0.89722012    0.07480000
opls_166-27    C    0.59527997    0.40471009    0.09697006    0.18260000
opls_700-28    C    0.71840994    0.35919996    0.89722012    0.07480000
opls_166-29    C    0.80943012    0.40471009    0.09697006    0.18270000
opls_700-30    C    0.35920001    0.71841024    0.89722012    0.07480000
opls_166-31    C    0.40470996    0.80943014    0.09697006    0.18260000
opls_700-32    C    0.35919990    0.64079009    0.89722012    0.07480000
opls_166-33    C    0.40470994    0.59527996    0.09697006    0.18290000
opls_700-34    C    0.28159019    0.64079009    0.89722012    0.07490000
opls_166-35    C    0.19057001    0.59527996    0.09697006    0.18260000
opls_701-36    C    0.33332988    0.66666998    0.18682947    -0.08450000
opls_701-37    C    0.66667012    0.33333002    0.18682947    -0.08460000
opls_701-38    C    0.66667012    0.33333002    0.81317053    -0.08460000
opls_701-39    C    0.33332988    0.66666998    0.81317053    -0.08460000
opls_145-40    C    0.48599004    0.51401012    0.17675937    -0.06190000
opls_145-41    C    0.38243988    0.61755992    0.19633029    -0.20440000
opls_145-42    C    0.48599006    0.97198013    0.17675937    -0.06190000
opls_145-43    C    0.38244008    0.76488016    0.19633029    -0.20440000
opls_145-44    C    0.02802009    0.51401012    0.17675937    -0.06190000
opls_145-45    C    0.23512004    0.61755992    0.19633029    -0.20440000
opls_145-46    C    0.51401015    0.48599025    0.17675937    -0.06190000
opls_145-47    C    0.61756012    0.38244008    0.19633029    -0.20440000
opls_145-48    C    0.51400994    0.02801987    0.17675937    -0.06190000
opls_145-49    C    0.61756011    0.23512021    0.19633029    -0.20430000
opls_145-50    C    0.97198010    0.48599025    0.17675937    -0.06190000
opls_145-51    C    0.76487996    0.38244008    0.19633029    -0.20440000
opls_145-52    C    0.51401015    0.48599025    0.82324063    -0.06180000
opls_145-53    C    0.61756012    0.38244008    0.80366971    -0.20430000
opls_145-54    C    0.97198010    0.48599025    0.82324063    -0.06190000
opls_145-55    C    0.76487996    0.38244008    0.80366971    -0.20430000
opls_145-56    C    0.51400994    0.02801987    0.82324063    -0.06190000
opls_145-57    C    0.61756011    0.23512021    0.80366971    -0.20440000
opls_145-58    C    0.48599004    0.51401012    0.82324063    -0.06190000
opls_145-59    C    0.38243988    0.61755992    0.80366971    -0.20430000
opls_145-60    C    0.02802009    0.51401012    0.82324063    -0.06190000
opls_145-61    C    0.23512004    0.61755992    0.80366971    -0.20440000
opls_145-62    C    0.48599006    0.97198013    0.82324063    -0.06190000
opls_145-63    C    0.38244008    0.76488016    0.80366971    -0.20440000
opls_146-64    H    0.23175996    0.61587993    0.65730950    0.12960000
opls_146-65    H    0.38411997    0.61587993    0.65730950    0.12970000
opls_146-66    H    0.38412007    0.76824014    0.65730950    0.12960000
opls_146-67    H    0.76824004    0.38412007    0.65730950    0.12960000
opls_146-68    H    0.61588003    0.38412007    0.65730950    0.12960000
opls_146-69    H    0.61587993    0.23175986    0.65730950    0.13040000
opls_146-70    H    0.61587993    0.23175986    0.34269050    0.13040000
opls_146-71    H    0.61588003    0.38412007    0.34269050    0.12960000
opls_146-72    H    0.76824004    0.38412007    0.34269050    0.12960000
opls_146-73    H    0.38412007    0.76824014    0.34269050    0.12960000
opls_146-74    H    0.38411997    0.61587993    0.34269050    0.12960000
opls_146-75    H    0.23175996    0.61587993    0.34269050    0.12970000
opls_702-76    H    0.33332988    0.66666998    0.66559063    0.05190000
opls_702-77    H    0.66667012    0.33333002    0.66559063    0.05190000
opls_702-78    H    0.66667012    0.33333002    0.33440937    0.05190000
opls_702-79    H    0.33332988    0.66666998    0.33440937    0.05190000
opls_146-80    H    0.47588005    0.52411992    0.30519000    0.05100000
opls_146-81    H    0.47588008    0.95176016    0.30519000    0.05100000
opls_146-82    H    0.04823987    0.52411992    0.30519000    0.05100000
opls_146-83    H    0.52411995    0.47588008    0.30519000    0.05100000
opls_146-84    H    0.52411992    0.04823984    0.30519000    0.05100000
opls_146-85    H    0.95176013    0.47588008    0.30519000    0.05100000
opls_146-86    H    0.52411995    0.47588008    0.69481000    0.05100000
opls_146-87    H    0.95176013    0.47588008    0.69481000    0.05100000
opls_146-88    H    0.52411992    0.04823984    0.69481000    0.05100000
opls_146-89    H    0.47588005    0.52411992    0.69481000    0.05100000
opls_146-90    H    0.04823987    0.52411992    0.69481000    0.05100000
opls_146-91    H    0.47588008    0.95176016    0.69481000    0.05100000
opls_167-92    O    0.14311006    0.57154999    0.83544950    -0.34590000
opls_167-93    O    0.42844012    0.57155994    0.83544950    -0.34580000
opls_167-94    O    0.42843992    0.85689006    0.83544950    -0.34590000
opls_167-95    O    0.85689007    0.42844006    0.83544950    -0.34590000
opls_167-96    O    0.57154998    0.42844006    0.83544950    -0.34590000
opls_167-97    O    0.57154986    0.14310994    0.83544950    -0.34590000
opls_167-98    O    0.57154986    0.14310994    0.16455050    -0.34580000
opls_167-99    O    0.57154998    0.42844006    0.16455050    -0.34590000
opls_167-100    O    0.85689007    0.42844006    0.16455050    -0.34580000
opls_167-101    O    0.42843992    0.85689006    0.16455050    -0.34590000
opls_167-102    O    0.42844012    0.57155994    0.16455050    -0.34580000
opls_167-103    O    0.14311006    0.57154999    0.16455050    -0.34590000
