#======================================================================
# Crystal Data Generated By AuToFF
#----------------------------------------------------------------------

data_AuToFF_phase_1

_cell_length_a                         19.6725
_cell_length_b                         3.5590
_cell_length_c                         19.6393
_cell_angle_alpha                      90.00
_cell_angle_beta                       60.00
_cell_angle_gamma                      90.00
_symmetry_space_group_name_H-M_alt     'P 1'
_symmetry_space_group_IT_number        1

loop_
_space_group_symop_operation_xyz
   'x, y, z'

loop_
   _atom_site_label
   _atom_site_type_symbol
   _atom_site_fract_x
   _atom_site_fract_y
   _atom_site_fract_z
   _atom_site_charge
opls_141-0    C    0.45676992    0.00000000    0.91943030    0.25670000
opls_142-1    C    0.51796986    0.00000000    0.77510990    0.07460000
opls_700-2    C    0.59014002    0.00000000    0.69433030    -0.04750000
opls_166-3    C    0.58078985    0.00000000    0.62642983    0.25610000
opls_142-4    C    0.15345016    0.00000000    0.33615982    -0.01070000
opls_700-5    C    0.23960002    0.00000000    0.31064026    -0.05360000
opls_166-6    C    0.29541018    0.00000000    0.22849014    0.24000000
opls_142-7    C    0.43636009    0.00000000    0.11589987    0.02730000
opls_700-8    C    0.37655975    0.00000000    0.20162005    -0.12080000
opls_166-9    C    0.40439996    0.00000000    0.25492985    0.22960000
opls_141-10    C    0.54918990    0.00000000    0.42173008    0.25880000
opls_142-11    C    0.63571981    0.00000000    0.47860994    0.07600000
opls_700-12    C    0.64679974    0.00000000    0.54916031    -0.11930000
opls_166-13    C    0.72336970    0.00000000    0.53925035    0.23020000
opls_141-14    C    0.95738030    0.00000000    0.51190989    0.25640000
opls_142-15    C    0.81393001    0.00000000    0.59665995    0.03010000
opls_700-16    C    0.73373998    0.00000000    0.60520998    -0.13670000
opls_166-17    C    0.66858011    0.00000000    0.68167988    0.23930000
opls_142-18    C    0.37438011    0.00000000    0.39936019    0.02170000
opls_700-19    C    0.35076984    0.00000000    0.33727988    -0.11830000
opls_166-20    C    0.26908996    0.00000000    0.36460034    0.25620000
opls_750-21    N    0.52092976    0.00000000    0.83966021    -0.34830000
opls_750-22    N    0.09834003    0.00000000    0.40871983    -0.17730000
opls_238-23    N    0.47585986    0.00000000    0.98085033    -0.22340000
opls_750-24    N    0.41811008    0.00000000    0.06090029    -0.17650000
opls_750-25    N    0.56670986    0.00000000    0.48471995    -0.38480000
opls_238-26    N    0.46848005    0.00000000    0.44165996    -0.22250000
opls_238-27    N    0.01826006    0.00000000    0.43129021    -0.22240000
opls_750-28    N    0.87751969    0.00000000    0.52830029    -0.34830000
opls_750-29    N    0.44647972    0.00000000    0.38355010    -0.17690000
opls_474-30    S    0.37617002    0.00000000    0.93752988    -0.19920000
opls_474-31    S    0.61044013    0.00000000    0.34042014    -0.19910000
opls_474-32    S    0.97643978    0.00000000    0.57396022    -0.19910000
opls_167-33    O    0.68791014    0.00000000    0.74152008    -0.42840000
opls_167-34    O    0.22148005    0.00000000    0.44676987    -0.39300000
opls_167-35    O    0.27419014    0.00000000    0.17007984    -0.42840000
opls_167-36    O    0.50684978    0.00000000    0.63185018    -0.42840000
opls_167-37    O    0.79153007    0.00000000    0.46511992    -0.39780000
opls_167-38    O    0.48638982    0.00000000    0.22072033    -0.43900000
opls_144-39    H    0.46057995    0.00000000    0.78182022    0.12360000
opls_144-40    H    0.13375012    0.00000000    0.29424987    0.12460000
opls_910-41    H    0.53524967    0.00000000    0.96391020    0.26350000
opls_168-42    H    0.64671984    0.00000000    0.79826001    0.36970000
opls_168-43    H    0.16271987    0.00000000    0.47260986    0.31440000
opls_144-44    H    0.49794003    0.00000000    0.09834003    0.12650000
opls_144-45    H    0.68532982    0.00000000    0.42047009    0.12440000
opls_910-46    H    0.42655991    0.00000000    0.50137023    0.27260000
opls_168-47    H    0.21828008    0.00000000    0.18243981    0.31440000
opls_168-48    H    0.45650976    0.00000000    0.68318034    0.36930000
opls_168-49    H    0.78922982    0.00000000    0.41528022    0.31440000
opls_910-50    H    0.00029989    0.00000000    0.38942024    0.27780000
opls_144-51    H    0.81895979    0.00000000    0.64917013    0.10890000
opls_168-52    H    0.51201977    0.00000000    0.25407026    0.31510000
opls_144-53    H    0.32955974    0.00000000    0.46075024    0.12750000
