#======================================================================
# Crystal Data Generated By AuToFF
#----------------------------------------------------------------------

data_AuToFF_phase_1

_cell_length_a                         30.0198
_cell_length_b                         30.0198
_cell_length_c                         3.4040
_cell_angle_alpha                      90.00
_cell_angle_beta                       90.00
_cell_angle_gamma                      120.00
_symmetry_space_group_name_H-M_alt     'P 1'
_symmetry_space_group_IT_number        1

loop_
_space_group_symop_operation_xyz
   'x, y, z'

loop_
   _atom_site_label
   _atom_site_type_symbol
   _atom_site_fract_x
   _atom_site_fract_y
   _atom_site_fract_z
   _atom_site_charge
MOF2_B_2-0    B    0.11357019    0.55678014    0.50000000    0.58260000
MOF2_B_2-1    B    0.44320996    0.55678014    0.50000000    0.58260000
MOF2_B_2-2    B    0.44321005    0.88643010    0.50000000    0.58260000
MOF2_B_2-3    B    0.88642981    0.44320986    0.50000000    0.58260000
MOF2_B_2-4    B    0.55678005    0.44320986    0.50000000    0.58260000
MOF2_B_2-5    B    0.55677995    0.11356990    0.50000000    0.58260000
opls_167-6    O    0.61305003    0.14429006    0.50000000    -0.34580000
opls_167-7    O    0.85570992    0.46875999    0.50000000    -0.34580000
opls_167-8    O    0.53124005    0.38694995    0.50000000    -0.34580000
opls_167-9    O    0.38694997    0.85570994    0.50000000    -0.34580000
opls_167-10    O    0.14429008    0.53124001    0.50000000    -0.34580000
opls_167-11    O    0.46875995    0.61305005    0.50000000    -0.34580000
opls_167-12    O    0.14429010    0.61305005    0.50000000    -0.34580000
opls_167-13    O    0.46875997    0.85570994    0.50000000    -0.34580000
opls_167-14    O    0.38694993    0.53124001    0.50000000    -0.34580000
opls_167-15    O    0.85570990    0.38694995    0.50000000    -0.34580000
opls_167-16    O    0.53124003    0.14429006    0.50000000    -0.34570000
opls_167-17    O    0.61305007    0.46875999    0.50000000    -0.34580000
opls_145-18    C    0.47311987    0.02687985    0.50000000    -0.04350000
opls_166-19    C    0.61949999    0.19328015    0.50000000    0.17300000
opls_145-20    C    0.66641002    0.23895998    0.50000000    -0.19580000
opls_700-21    C    0.66686995    0.28620993    0.50000000    0.02570000
opls_145-22    C    0.97312005    0.44624010    0.50000000    -0.04350000
opls_166-23    C    0.80671990    0.42622003    0.50000000    0.17300000
opls_145-24    C    0.76104017    0.42745013    0.50000000    -0.19580000
opls_700-25    C    0.71378976    0.38065983    0.50000000    0.02570000
opls_145-26    C    0.55376008    0.52688005    0.50000000    -0.04390000
opls_166-27    C    0.57377978    0.38049982    0.50000000    0.17300000
opls_145-28    C    0.57254981    0.33358989    0.50000000    -0.19580000
opls_700-29    C    0.61933976    0.33312986    0.50000000    0.02570000
opls_145-30    C    0.52688013    0.97312015    0.50000000    -0.04390000
opls_166-31    C    0.38050001    0.80671985    0.50000000    0.17300000
opls_145-32    C    0.33358998    0.76104002    0.50000000    -0.19560000
opls_700-33    C    0.33313005    0.71379007    0.50000000    0.02570000
opls_145-34    C    0.02687995    0.55375990    0.50000000    -0.04350000
opls_166-35    C    0.19328010    0.57377997    0.50000000    0.17300000
opls_145-36    C    0.23895983    0.57254987    0.50000000    -0.19580000
opls_700-37    C    0.28621024    0.61934017    0.50000000    0.02570000
opls_145-38    C    0.44623992    0.47311995    0.50000000    -0.04350000
opls_166-39    C    0.42622003    0.61949980    0.50000000    0.17300000
opls_145-40    C    0.42745019    0.66641011    0.50000000    -0.19570000
opls_700-41    C    0.38066024    0.66687014    0.50000000    0.02570000
opls_145-42    C    0.02688003    0.47311995    0.50000000    -0.04390000
opls_166-43    C    0.19327977    0.61949980    0.50000000    0.17300000
opls_145-44    C    0.23895992    0.66641011    0.50000000    -0.19580000
opls_700-45    C    0.28620991    0.66687014    0.50000000    0.02570000
opls_145-46    C    0.44624002    0.97312015    0.50000000    -0.04350000
opls_166-47    C    0.42621984    0.80671985    0.50000000    0.17310000
opls_145-48    C    0.42745004    0.76104002    0.50000000    -0.19580000
opls_700-49    C    0.38066002    0.71379007    0.50000000    0.02570000
opls_145-50    C    0.52687995    0.55375990    0.50000000    -0.04390000
opls_166-51    C    0.38049987    0.57377997    0.50000000    0.17300000
opls_145-52    C    0.33359004    0.57254987    0.50000000    -0.19580000
opls_700-53    C    0.33312993    0.61934017    0.50000000    0.02570000
opls_145-54    C    0.97311997    0.52688005    0.50000000    -0.04390000
opls_166-55    C    0.80672004    0.38049982    0.50000000    0.17300000
opls_145-56    C    0.76104008    0.33358989    0.50000000    -0.19580000
opls_700-57    C    0.71379009    0.33312986    0.50000000    0.02570000
opls_145-58    C    0.55375998    0.02687985    0.50000000    -0.04390000
opls_166-59    C    0.57378016    0.19328015    0.50000000    0.17310000
opls_145-60    C    0.57254996    0.23895998    0.50000000    -0.19580000
opls_700-61    C    0.61933998    0.28620993    0.50000000    0.02570000
opls_145-62    C    0.47312005    0.44624010    0.50000000    -0.04350000
opls_166-63    C    0.61950013    0.42622003    0.50000000    0.17300000
opls_145-64    C    0.66640996    0.42745013    0.50000000    -0.19580000
opls_700-65    C    0.66687007    0.38065983    0.50000000    0.02570000
opls_145-66    C    0.94616995    0.47307995    0.50000000    -0.23650000
opls_145-67    C    0.52691000    0.47307995    0.50000000    -0.23650000
opls_145-68    C    0.52691005    0.05383010    0.50000000    -0.23650000
opls_145-69    C    0.05383005    0.52692005    0.50000000    -0.23650000
opls_145-70    C    0.47308000    0.52691005    0.50000000    -0.23650000
opls_145-71    C    0.47307996    0.94616990    0.50000000    -0.23650000
opls_146-72    H    0.46545990    0.69923005    0.50000000    0.09750000
opls_146-73    H    0.54812000    0.59552979    0.50000000    0.11600000
opls_146-74    H    0.30077004    0.76623005    0.50000000    0.09750000
opls_146-75    H    0.40447009    0.95259004    0.50000000    0.11600000
opls_146-76    H    0.23377006    0.53453989    0.50000000    0.09750000
opls_146-77    H    0.04741025    0.45188017    0.50000000    0.11600000
opls_146-78    H    0.53454010    0.30076995    0.50000000    0.09750000
opls_146-79    H    0.45187981    0.40446982    0.50000000    0.11600000
opls_146-80    H    0.69922996    0.23376995    0.50000000    0.09750000
opls_146-81    H    0.59552991    0.04740996    0.50000000    0.11600000
opls_146-82    H    0.76622994    0.46546011    0.50000000    0.09750000
opls_146-83    H    0.95258975    0.54811983    0.50000000    0.11600000
opls_146-84    H    0.69923016    0.46546011    0.50000000    0.09750000
opls_146-85    H    0.59553008    0.54811983    0.50000000    0.11600000
opls_146-86    H    0.76622985    0.30076995    0.50000000    0.09750000
opls_146-87    H    0.95259001    0.40446982    0.50000000    0.11600000
opls_146-88    H    0.53453999    0.23376995    0.50000000    0.09750000
opls_146-89    H    0.45188005    0.04740996    0.50000000    0.11600000
opls_146-90    H    0.30076984    0.53453989    0.50000000    0.09750000
opls_146-91    H    0.40446992    0.45188017    0.50000000    0.11600000
opls_146-92    H    0.23377015    0.69923005    0.50000000    0.09750000
opls_146-93    H    0.04740980    0.59552979    0.50000000    0.11600000
opls_146-94    H    0.46546001    0.76623005    0.50000000    0.09750000
opls_146-95    H    0.54811995    0.95259004    0.50000000    0.11600000
