#======================================================================
# Crystal Data Generated By AuToFF
#----------------------------------------------------------------------

data_AuToFF_phase_1

_cell_length_a                         10.9737
_cell_length_b                         10.9734
_cell_length_c                         20.0000
_cell_angle_alpha                      90.00
_cell_angle_beta                       90.00
_cell_angle_gamma                      120.00
_symmetry_space_group_name_H-M_alt     'P 1'
_symmetry_space_group_IT_number        1

loop_
_space_group_symop_operation_xyz
   'x, y, z'

loop_
   _atom_site_label
   _atom_site_type_symbol
   _atom_site_fract_x
   _atom_site_fract_y
   _atom_site_fract_z
   _atom_site_charge
opls_641-0    N    0.04792033    0.99129975    0.22030000    -0.43350000
opls_750-1    N    0.28744052    0.04413049    0.22021000    -0.32300000
opls_641-2    N    0.00420026    0.18383004    0.22036000    -0.43350000
opls_750-3    N    0.81750022    0.94431969    0.22029000    -0.32420000
opls_641-4    N    0.24045002    0.22757014    0.22031000    -0.43360000
opls_750-5    N    0.18763057    0.41426028    0.22026000    -0.32420000
opls_642-6    C    0.18669035    0.08776010    0.22033000    0.55310000
opls_642-7    C    0.96188015    0.04505965    0.22037000    0.55330000
opls_700-8    C    0.33915998    0.85592928    0.22115000    0.06240000
opls_145-9    C    0.48623999    0.94686936    0.22113000    -0.14160000
opls_700-10    C    0.57758988    0.89262963    0.22116000    0.06240000
opls_145-11    C    0.52141993    0.74550940    0.22121000    -0.14160000
opls_700-12    C    0.37582037    0.65416945    0.22121000    0.06240000
opls_145-13    C    0.28487025    0.71032959    0.22118000    -0.14150000
opls_142-14    C    0.24184985    0.91041946    0.22133000    0.08270000
opls_142-15    C    0.72936986    0.98992969    0.22132000    0.08270000
opls_142-16    C    0.32135032    0.50238973    0.22142000    0.08400000
opls_642-17    C    0.14397024    0.26986966    0.22037000    0.55310000
opls_146-18    H    0.52739955    0.06042925    0.22115000    0.12840000
opls_146-19    H    0.59383034    0.70440000    0.22129000    0.12720000
opls_146-20    H    0.17134014    0.63790963    0.22125000    0.12570000
opls_144-21    H    0.76527042    0.10352956    0.22235000    0.07310000
opls_144-22    H    0.39905021    0.46651016    0.22260000    0.07310000
opls_144-23    H    0.12826944    0.83269916    0.22248000    0.07310000
