#======================================================================
# Crystal Data Generated By AuToFF
#----------------------------------------------------------------------

data_AuToFF_phase_1

_cell_length_a                         35.7010
_cell_length_b                         35.7010
_cell_length_c                         3.3610
_cell_angle_alpha                      90.00
_cell_angle_beta                       90.00
_cell_angle_gamma                      90.00
_symmetry_space_group_name_H-M_alt     'P 1'
_symmetry_space_group_IT_number        1

loop_
_space_group_symop_operation_xyz
   'x, y, z'

loop_
   _atom_site_label
   _atom_site_type_symbol
   _atom_site_fract_x
   _atom_site_fract_y
   _atom_site_fract_z
   _atom_site_charge
opls_700-0    C    0.01988012    0.50000000    0.50000000    0.01060000
opls_521-1    C    0.14088989    0.50000000    0.50000000    0.17110000
opls_145-2    C    0.22165990    0.50000000    0.50000000    -0.25980000
opls_700-3    C    0.98011988    0.50000000    0.50000000    0.01060000
opls_521-4    C    0.85911011    0.50000000    0.50000000    0.17110000
opls_145-5    C    0.77834010    0.50000000    0.50000000    -0.25980000
opls_700-6    C    0.50000000    0.01988012    0.50000000    0.01060000
opls_521-7    C    0.50000000    0.14088989    0.50000000    0.17110000
opls_145-8    C    0.50000000    0.22165990    0.50000000    -0.25980000
opls_700-9    C    0.50000000    0.98011988    0.50000000    0.01060000
opls_521-10    C    0.50000000    0.85911011    0.50000000    0.17110000
opls_145-11    C    0.50000000    0.77834010    0.50000000    -0.25980000
opls_523-12    C    0.01988012    0.43309991    0.50000000    -0.19900000
opls_700-13    C    0.03970001    0.46654996    0.50000000    -0.06620000
opls_234-14    C    0.07918994    0.46654996    0.50000000    0.42480000
opls_522-15    C    0.16205989    0.46654996    0.50000000    -0.20570000
opls_523-16    C    0.20132993    0.46654996    0.50000000    -0.12050000
opls_166-17    C    0.31941990    0.48085992    0.50000000    0.17340000
opls_145-18    C    0.35293997    0.46024005    0.50000000    -0.22470000
opls_716-19    C    0.38631999    0.48097000    0.50000000    -0.01030000
opls_543-20    C    0.42349010    0.47025994    0.50000000    0.36760000
opls_523-21    C    0.98011988    0.56690009    0.50000000    -0.19900000
opls_700-22    C    0.96029999    0.53345004    0.50000000    -0.06620000
opls_234-23    C    0.92081006    0.53345004    0.50000000    0.42480000
opls_522-24    C    0.83794011    0.53345004    0.50000000    -0.20570000
opls_523-25    C    0.79865998    0.53345004    0.50000000    -0.12050000
opls_166-26    C    0.68058010    0.51914008    0.50000000    0.17340000
opls_145-27    C    0.64706003    0.53975995    0.50000000    -0.22470000
opls_716-28    C    0.61368001    0.51903000    0.50000000    -0.01030000
opls_543-29    C    0.57650990    0.52974006    0.50000000    0.36760000
opls_523-30    C    0.56690009    0.01988012    0.50000000    -0.19900000
opls_700-31    C    0.53345004    0.03970001    0.50000000    -0.06620000
opls_234-32    C    0.53345004    0.07918994    0.50000000    0.42480000
opls_522-33    C    0.53345004    0.16205989    0.50000000    -0.20570000
opls_523-34    C    0.53345004    0.20132993    0.50000000    -0.12050000
opls_166-35    C    0.51914008    0.31941990    0.50000000    0.17340000
opls_145-36    C    0.53975995    0.35293997    0.50000000    -0.22470000
opls_716-37    C    0.51903000    0.38631999    0.50000000    -0.01030000
opls_543-38    C    0.52974006    0.42349010    0.50000000    0.36760000
opls_523-39    C    0.43309991    0.98011988    0.50000000    -0.19900000
opls_700-40    C    0.46654996    0.96029999    0.50000000    -0.06620000
opls_234-41    C    0.46654996    0.92081006    0.50000000    0.42480000
opls_522-42    C    0.46654996    0.83794011    0.50000000    -0.20570000
opls_523-43    C    0.46654996    0.79865998    0.50000000    -0.12050000
opls_166-44    C    0.48085992    0.68058010    0.50000000    0.17340000
opls_145-45    C    0.46024005    0.64706003    0.50000000    -0.22470000
opls_716-46    C    0.48097000    0.61368001    0.50000000    -0.01030000
opls_543-47    C    0.47025994    0.57650990    0.50000000    0.36760000
opls_523-48    C    0.98011988    0.43309991    0.50000000    -0.19900000
opls_700-49    C    0.96029999    0.46654996    0.50000000    -0.06620000
opls_234-50    C    0.92081006    0.46654996    0.50000000    0.42480000
opls_522-51    C    0.83794011    0.46654996    0.50000000    -0.20570000
opls_523-52    C    0.79865998    0.46654996    0.50000000    -0.12050000
opls_166-53    C    0.68058010    0.48085992    0.50000000    0.17340000
opls_145-54    C    0.64706003    0.46024005    0.50000000    -0.22470000
opls_716-55    C    0.61368001    0.48097000    0.50000000    -0.01030000
opls_543-56    C    0.57650990    0.47025994    0.50000000    0.36760000
opls_523-57    C    0.01988012    0.56690009    0.50000000    -0.19900000
opls_700-58    C    0.03970001    0.53345004    0.50000000    -0.06620000
opls_234-59    C    0.07918994    0.53345004    0.50000000    0.42480000
opls_522-60    C    0.16205989    0.53345004    0.50000000    -0.20570000
opls_523-61    C    0.20132993    0.53345004    0.50000000    -0.12050000
opls_166-62    C    0.31941990    0.51914008    0.50000000    0.17340000
opls_145-63    C    0.35293997    0.53975995    0.50000000    -0.22470000
opls_716-64    C    0.38631999    0.51903000    0.50000000    -0.01030000
opls_543-65    C    0.42349010    0.52974006    0.50000000    0.36760000
opls_523-66    C    0.43309991    0.01988012    0.50000000    -0.19900000
opls_700-67    C    0.46654996    0.03970001    0.50000000    -0.06620000
opls_234-68    C    0.46654996    0.07918994    0.50000000    0.42480000
opls_522-69    C    0.46654996    0.16205989    0.50000000    -0.20570000
opls_523-70    C    0.46654996    0.20132993    0.50000000    -0.12050000
opls_166-71    C    0.48085992    0.31941990    0.50000000    0.17340000
opls_145-72    C    0.46024005    0.35293997    0.50000000    -0.22470000
opls_716-73    C    0.48097000    0.38631999    0.50000000    -0.01030000
opls_543-74    C    0.47025994    0.42349010    0.50000000    0.36760000
opls_523-75    C    0.56690009    0.98011988    0.50000000    -0.19900000
opls_700-76    C    0.53345004    0.96029999    0.50000000    -0.06620000
opls_234-77    C    0.53345004    0.92081006    0.50000000    0.42480000
opls_522-78    C    0.53345004    0.83794011    0.50000000    -0.20570000
opls_523-79    C    0.53345004    0.79865998    0.50000000    -0.12050000
opls_166-80    C    0.51914008    0.68058010    0.50000000    0.17340000
opls_145-81    C    0.53975995    0.64706003    0.50000000    -0.22470000
opls_716-82    C    0.51903000    0.61368001    0.50000000    -0.01030000
opls_543-83    C    0.52974006    0.57650990    0.50000000    0.36750000
MOF2_B_2-84    B    0.26392006    0.50000000    0.50000000    0.54870000
MOF2_B_2-85    B    0.73607994    0.50000000    0.50000000    0.54880000
MOF2_B_2-86    B    0.50000000    0.26392006    0.50000000    0.54880000
MOF2_B_2-87    B    0.50000000    0.73607994    0.50000000    0.54880000
opls_251-88    N    0.09928013    0.50000000    0.50000000    -0.21760000
opls_542-89    N    0.44716002    0.50000000    0.50000000    -0.42890000
opls_251-90    N    0.90071987    0.50000000    0.50000000    -0.21760000
opls_542-91    N    0.55283998    0.50000000    0.50000000    -0.42890000
opls_251-92    N    0.50000000    0.09928013    0.50000000    -0.21760000
opls_542-93    N    0.50000000    0.44716002    0.50000000    -0.42890000
opls_251-94    N    0.50000000    0.90071987    0.50000000    -0.21760000
opls_542-95    N    0.50000000    0.55283998    0.50000000    -0.42910000
opls_750-96    N    0.43452004    0.43452004    0.50000000    -0.39830000
opls_750-97    N    0.56547996    0.56547996    0.50000000    -0.39830000
opls_750-98    N    0.56547996    0.43452004    0.50000000    -0.39830000
opls_750-99    N    0.43452004    0.56547996    0.50000000    -0.39830000
opls_236-100    O    0.09583009    0.43570992    0.50000000    -0.53250000
opls_167-101    O    0.28529005    0.46750007    0.50000000    -0.35240000
opls_236-102    O    0.90416991    0.56429008    0.50000000    -0.53240000
opls_167-103    O    0.71470995    0.53249993    0.50000000    -0.35240000
opls_236-104    O    0.56429008    0.09583009    0.50000000    -0.53250000
opls_167-105    O    0.53249993    0.28529005    0.50000000    -0.35240000
opls_236-106    O    0.43570992    0.90416991    0.50000000    -0.53240000
opls_167-107    O    0.46750007    0.71470995    0.50000000    -0.35240000
opls_236-108    O    0.90416991    0.43570992    0.50000000    -0.53240000
opls_167-109    O    0.71470995    0.46750007    0.50000000    -0.35240000
opls_236-110    O    0.09583009    0.56429008    0.50000000    -0.53250000
opls_167-111    O    0.28529005    0.53249993    0.50000000    -0.35240000
opls_236-112    O    0.43570992    0.09583009    0.50000000    -0.53240000
opls_167-113    O    0.46750007    0.28529005    0.50000000    -0.35240000
opls_236-114    O    0.56429008    0.90416991    0.50000000    -0.53240000
opls_167-115    O    0.53249993    0.71470995    0.50000000    -0.35240000
opls_526-116    H    0.03352987    0.40778998    0.50000000    0.23710000
opls_525-117    H    0.15360998    0.43990000    0.50000000    0.23750000
opls_526-118    H    0.21564998    0.44152993    0.50000000    0.23710000
opls_146-119    H    0.35258004    0.43164001    0.50000000    0.23710000
opls_526-120    H    0.96647013    0.59219994    0.50000000    0.23710000
opls_525-121    H    0.84639002    0.56010000    0.50000000    0.23750000
opls_526-122    H    0.78435002    0.55847007    0.50000000    0.23710000
opls_146-123    H    0.64741996    0.56835999    0.50000000    0.23710000
opls_526-124    H    0.59219994    0.03352987    0.50000000    0.23710000
opls_525-125    H    0.56010000    0.15360998    0.50000000    0.23750000
opls_526-126    H    0.55847007    0.21564998    0.50000000    0.23710000
opls_146-127    H    0.56835999    0.35258004    0.50000000    0.23710000
opls_526-128    H    0.40778998    0.96647013    0.50000000    0.23710000
opls_525-129    H    0.43990000    0.84639002    0.50000000    0.23750000
opls_526-130    H    0.44152993    0.78435002    0.50000000    0.23710000
opls_146-131    H    0.43164001    0.64741996    0.50000000    0.23710000
opls_526-132    H    0.96647013    0.40778998    0.50000000    0.23710000
opls_525-133    H    0.84639002    0.43990000    0.50000000    0.23740000
opls_526-134    H    0.78435002    0.44152993    0.50000000    0.23710000
opls_146-135    H    0.64741996    0.43164001    0.50000000    0.23710000
opls_526-136    H    0.03352987    0.59219994    0.50000000    0.23710000
opls_525-137    H    0.15360998    0.56010000    0.50000000    0.23750000
opls_526-138    H    0.21564998    0.55847007    0.50000000    0.23710000
opls_146-139    H    0.35258004    0.56835999    0.50000000    0.23710000
opls_526-140    H    0.40778998    0.03352987    0.50000000    0.23710000
opls_525-141    H    0.43990000    0.15360998    0.50000000    0.23750000
opls_526-142    H    0.44152993    0.21564998    0.50000000    0.23710000
opls_146-143    H    0.43164001    0.35258004    0.50000000    0.23710000
opls_526-144    H    0.59219994    0.96647013    0.50000000    0.23710000
opls_525-145    H    0.56010000    0.84639002    0.50000000    0.23740000
opls_526-146    H    0.55847007    0.78435002    0.50000000    0.23710000
opls_146-147    H    0.56835999    0.64741996    0.50000000    0.23710000
Zn2+-148    Zn    0.50000000    0.50000000    0.50000000    0.67010000
