#======================================================================
# Crystal Data Generated By AuToFF
#----------------------------------------------------------------------

data_AuToFF_phase_1

_cell_length_a                         54.5707
_cell_length_b                         54.5707
_cell_length_c                         21.5094
_cell_angle_alpha                      90.00
_cell_angle_beta                       90.00
_cell_angle_gamma                      120.00
_symmetry_space_group_name_H-M_alt     'P 1'
_symmetry_space_group_IT_number        1

loop_
_space_group_symop_operation_xyz
   'x, y, z'

loop_
   _atom_site_label
   _atom_site_type_symbol
   _atom_site_fract_x
   _atom_site_fract_y
   _atom_site_fract_z
   _atom_site_charge
opls_700-0    C    0.39917999    0.62625993    0.56872019    0.06670000
opls_145-1    C    0.42832004    0.64360011    0.57836016    -0.12100000
opls_145-2    C    0.44318996    0.63391001    0.61395994    -0.12860000
opls_700-3    C    0.42906996    0.60682007    0.64075985    0.06590000
opls_145-4    C    0.39982008    0.58942001    0.63062986    -0.13370000
opls_145-5    C    0.38500004    0.59913000    0.59489990    -0.11940000
opls_142-6    C    0.44499999    0.59751995    0.68038021    0.06830000
opls_145-7    C    0.42917009    0.53317008    0.76548997    -0.17450000
opls_145-8    C    0.44475006    0.56194010    0.75001023    0.18580000
opls_145-9    C    0.47119999    0.57908011    0.77870001    -0.17790000
opls_145-10    C    0.48167010    0.56742004    0.82179001    -0.12130000
opls_700-11    C    0.46592005    0.53864008    0.83706008    0.06910000
opls_145-12    C    0.43965999    0.52154006    0.80857997    -0.12100000
opls_141-13    C    0.47640005    0.52669013    0.88523994    -0.06210000
opls_543-14    C    0.48894012    0.51229009    0.86896985    0.16890000
opls_700-15    C    0.38326003    0.63678012    0.53299999    0.02920000
opls_145-16    C    0.36727006    0.64627004    0.56576009    -0.18150000
opls_700-17    C    0.35161009    0.65578006    0.53294002    0.05900000
opls_716-18    C    0.45919999    0.54566003    0.96857978    -0.20390000
opls_543-19    C    0.47264998    0.53106998    0.04952021    0.18880000
opls_716-20    C    0.49347998    0.50730000    0.19577022    -0.16660000
opls_700-21    C    0.37374001    0.77292005    0.56872019    0.06670000
opls_145-22    C    0.35640003    0.78471998    0.57836016    -0.12100000
opls_145-23    C    0.36609004    0.80928006    0.61395994    -0.12860000
opls_700-24    C    0.39318008    0.82225012    0.64075985    0.06590000
opls_145-25    C    0.41058002    0.81040004    0.63062986    -0.13370000
opls_145-26    C    0.40087003    0.78587001    0.59489990    -0.11940000
opls_142-27    C    0.40248012    0.84748012    0.68038021    0.06830000
opls_145-28    C    0.46683006    0.89599999    0.76548997    -0.17450000
opls_145-29    C    0.43806002    0.88281008    0.75001023    0.18580000
opls_145-30    C    0.42092002    0.89212014    0.77870001    -0.17810000
opls_145-31    C    0.43257998    0.91425003    0.82179001    -0.12130000
opls_700-32    C    0.46136001    0.92727998    0.83706008    0.06910000
opls_145-33    C    0.47846004    0.91812015    0.80857997    -0.12090000
opls_141-34    C    0.47331009    0.94971012    0.88523994    -0.06210000
opls_543-35    C    0.48771004    0.97665004    0.86896985    0.16890000
opls_700-36    C    0.36322004    0.74648013    0.53299999    0.02920000
opls_145-37    C    0.35373008    0.72100003    0.56576009    -0.18150000
opls_700-38    C    0.34422004    0.69583012    0.53294002    0.05570000
opls_716-39    C    0.45434000    0.91354012    0.96857978    -0.20390000
opls_543-40    C    0.46893010    0.94158014    0.04952021    0.18890000
opls_716-41    C    0.49270002    0.98617995    0.19577022    -0.16660000
opls_700-42    C    0.22708000    0.60082002    0.56872019    0.06670000
opls_145-43    C    0.21528004    0.57168013    0.57836016    -0.12100000
opls_145-44    C    0.19072000    0.55680993    0.61395994    -0.12860000
opls_700-45    C    0.17775006    0.57093002    0.64075985    0.06590000
opls_145-46    C    0.18959991    0.60017994    0.63062986    -0.13370000
opls_145-47    C    0.21412993    0.61500000    0.59489990    -0.11940000
opls_142-48    C    0.15251989    0.55499992    0.68038021    0.06830000
opls_145-49    C    0.10400003    0.57082993    0.76548997    -0.17450000
opls_145-50    C    0.11719002    0.55525003    0.75001023    0.18580000
opls_145-51    C    0.10787991    0.52879996    0.77870001    -0.17810000
opls_145-52    C    0.08574992    0.51832992    0.82179001    -0.12130000
opls_700-53    C    0.07271994    0.53407995    0.83706008    0.06910000
opls_145-54    C    0.08188008    0.56034000    0.80857997    -0.12100000
opls_141-55    C    0.05028996    0.52359996    0.88523994    -0.06200000
opls_543-56    C    0.02334995    0.51106008    0.86896985    0.16890000
opls_700-57    C    0.25352003    0.61673996    0.53299999    0.02920000
opls_145-58    C    0.27900004    0.63272994    0.56576009    -0.18150000
opls_700-59    C    0.30416998    0.64839003    0.53294002    0.05950000
opls_716-60    C    0.08646011    0.54080006    0.96857978    -0.20390000
opls_543-61    C    0.05842003    0.52735010    0.04952021    0.18880000
opls_716-62    C    0.01382000    0.50652005    0.19577022    -0.16660000
opls_700-63    C    0.60082001    0.37374007    0.56872019    0.06670000
opls_145-64    C    0.57168007    0.35640011    0.57836016    -0.12100000
opls_145-65    C    0.55681004    0.36608999    0.61395994    -0.12860000
opls_700-66    C    0.57093004    0.39317993    0.64075985    0.06590000
opls_145-67    C    0.60017992    0.41057999    0.63062986    -0.13360000
opls_145-68    C    0.61499996    0.40087000    0.59489990    -0.11940000
opls_142-69    C    0.55500001    0.40248005    0.68038021    0.06830000
opls_145-70    C    0.57082991    0.46682992    0.76548997    -0.17450000
opls_145-71    C    0.55525004    0.43806011    0.75001023    0.18580000
opls_145-72    C    0.52880011    0.42092010    0.77870001    -0.17810000
opls_145-73    C    0.51832990    0.43257996    0.82179001    -0.12130000
opls_700-74    C    0.53407995    0.46135992    0.83706008    0.06910000
opls_145-75    C    0.56034001    0.47845994    0.80857997    -0.12100000
opls_141-76    C    0.52360005    0.47331008    0.88523994    -0.06210000
opls_543-77    C    0.51105999    0.48771012    0.86896985    0.16890000
opls_700-78    C    0.61674007    0.36322009    0.53299999    0.02920000
opls_145-79    C    0.63272994    0.35372996    0.56576009    -0.18150000
opls_700-80    C    0.64838991    0.34421994    0.53294002    0.05900000
opls_716-81    C    0.54080001    0.45433997    0.96857978    -0.20390000
opls_543-82    C    0.52735002    0.46893002    0.04952021    0.18880000
opls_716-83    C    0.50652002    0.49270000    0.19577022    -0.16660000
opls_700-84    C    0.62625999    0.22707995    0.56872019    0.06670000
opls_145-85    C    0.64359997    0.21528002    0.57836016    -0.12100000
opls_145-86    C    0.63390996    0.19071994    0.61395994    -0.12860000
opls_700-87    C    0.60682002    0.17775009    0.64075985    0.06590000
opls_145-88    C    0.58941998    0.18959996    0.63062986    -0.13370000
opls_145-89    C    0.59912997    0.21412999    0.59489990    -0.11940000
opls_142-90    C    0.59751999    0.15252009    0.68038021    0.06830000
opls_145-91    C    0.53316994    0.10400001    0.76548997    -0.17450000
opls_145-92    C    0.56193998    0.11718992    0.75001023    0.18580000
opls_145-93    C    0.57908008    0.10788007    0.77870001    -0.17810000
opls_145-94    C    0.56742002    0.08574997    0.82179001    -0.12130000
opls_700-95    C    0.53863999    0.07272002    0.83706008    0.06910000
opls_145-96    C    0.52154006    0.08188007    0.80857997    -0.12100000
opls_141-97    C    0.52669001    0.05029009    0.88523994    -0.06210000
opls_543-98    C    0.51228996    0.02334996    0.86896985    0.16890000
opls_700-99    C    0.63678007    0.25352008    0.53299999    0.02920000
opls_145-100    C    0.64626992    0.27899997    0.56576009    -0.18150000
opls_700-101    C    0.65578007    0.30417009    0.53294002    0.05950000
opls_716-102    C    0.54566010    0.08646009    0.96857978    -0.20390000
opls_543-103    C    0.53107001    0.05842008    0.04952021    0.18880000
opls_716-104    C    0.50729998    0.01382005    0.19577022    -0.16660000
opls_700-105    C    0.77292000    0.39917998    0.56872019    0.06670000
opls_145-106    C    0.78472007    0.42832008    0.57836016    -0.12100000
opls_145-107    C    0.80928000    0.44319007    0.61395994    -0.12860000
opls_700-108    C    0.82224994    0.42906998    0.64075985    0.06590000
opls_145-109    C    0.81040009    0.39982006    0.63062986    -0.13370000
opls_145-110    C    0.78587007    0.38500000    0.59489990    -0.11940000
opls_142-111    C    0.84748011    0.44500008    0.68038021    0.06830000
opls_145-112    C    0.89599997    0.42917007    0.76548997    -0.17450000
opls_145-113    C    0.88280998    0.44474997    0.75001023    0.18580000
opls_145-114    C    0.89212009    0.47120004    0.77870001    -0.17810000
opls_145-115    C    0.91425008    0.48167008    0.82179001    -0.12130000
opls_700-116    C    0.92728006    0.46592005    0.83706008    0.06910000
opls_145-117    C    0.91811992    0.43966000    0.80857997    -0.12100000
opls_141-118    C    0.94971004    0.47640004    0.88523994    -0.06210000
opls_543-119    C    0.97665005    0.48893992    0.86896985    0.16890000
opls_700-120    C    0.74647997    0.38326004    0.53299999    0.02920000
opls_145-121    C    0.72099996    0.36727006    0.56576009    -0.18150000
opls_700-122    C    0.69583002    0.35160997    0.53294002    0.05950000
opls_716-123    C    0.91353989    0.45919994    0.96857978    -0.20380000
opls_543-124    C    0.94158007    0.47265011    0.04952021    0.18880000
opls_716-125    C    0.98618000    0.49347995    0.19577022    -0.16660000
opls_700-126    C    0.60082001    0.37374007    0.43127981    0.06670000
opls_145-127    C    0.57168007    0.35640011    0.42163984    -0.12100000
opls_145-128    C    0.55681004    0.36608999    0.38604006    -0.12860000
opls_700-129    C    0.57093004    0.39317993    0.35924015    0.06590000
opls_145-130    C    0.60017992    0.41057999    0.36937014    -0.13370000
opls_145-131    C    0.61499996    0.40087000    0.40510010    -0.11940000
opls_142-132    C    0.55500001    0.40248005    0.31961979    0.06830000
opls_145-133    C    0.57082991    0.46682992    0.23451003    -0.17450000
opls_145-134    C    0.55525004    0.43806011    0.24998977    0.18580000
opls_145-135    C    0.52880011    0.42092010    0.22129999    -0.17810000
opls_145-136    C    0.51832990    0.43257996    0.17820999    -0.12130000
opls_700-137    C    0.53407995    0.46135992    0.16293992    0.06910000
opls_145-138    C    0.56034001    0.47845994    0.19142003    -0.12100000
opls_141-139    C    0.52360005    0.47331008    0.11476006    -0.06210000
opls_543-140    C    0.51105999    0.48771012    0.13103015    0.16890000
opls_700-141    C    0.61674007    0.36322009    0.46700001    0.02920000
opls_145-142    C    0.63272994    0.35372996    0.43423991    -0.18150000
opls_700-143    C    0.64838991    0.34421994    0.46705998    0.05900000
opls_716-144    C    0.54080001    0.45433997    0.03142022    -0.20390000
opls_543-145    C    0.52735002    0.46893002    0.95047979    0.18880000
opls_716-146    C    0.50652002    0.49270000    0.80422978    -0.16660000
opls_700-147    C    0.62625999    0.22707995    0.43127981    0.06670000
opls_145-148    C    0.64359997    0.21528002    0.42163984    -0.12100000
opls_145-149    C    0.63390996    0.19071994    0.38604006    -0.12860000
opls_700-150    C    0.60682002    0.17775009    0.35924015    0.06590000
opls_145-151    C    0.58941998    0.18959996    0.36937014    -0.13370000
opls_145-152    C    0.59912997    0.21412999    0.40510010    -0.11940000
opls_142-153    C    0.59751999    0.15252009    0.31961979    0.06830000
opls_145-154    C    0.53316994    0.10400001    0.23451003    -0.17450000
opls_145-155    C    0.56193998    0.11718992    0.24998977    0.18580000
opls_145-156    C    0.57908008    0.10788007    0.22129999    -0.17810000
opls_145-157    C    0.56742002    0.08574997    0.17820999    -0.12130000
opls_700-158    C    0.53863999    0.07272002    0.16293992    0.06910000
opls_145-159    C    0.52154006    0.08188007    0.19142003    -0.12100000
opls_141-160    C    0.52669001    0.05029009    0.11476006    -0.06210000
opls_543-161    C    0.51228996    0.02334996    0.13103015    0.16890000
opls_700-162    C    0.63678007    0.25352008    0.46700001    0.02920000
opls_145-163    C    0.64626992    0.27899997    0.43423991    -0.18150000
opls_700-164    C    0.65578007    0.30417009    0.46705998    0.05950000
opls_716-165    C    0.54566010    0.08646009    0.03142022    -0.20390000
opls_543-166    C    0.53107001    0.05842008    0.95047979    0.18880000
opls_716-167    C    0.50729998    0.01382005    0.80422978    -0.16660000
opls_700-168    C    0.77292000    0.39917998    0.43127981    0.06670000
opls_145-169    C    0.78472007    0.42832008    0.42163984    -0.12100000
opls_145-170    C    0.80928000    0.44319007    0.38604006    -0.12860000
opls_700-171    C    0.82224994    0.42906998    0.35924015    0.06590000
opls_145-172    C    0.81040009    0.39982006    0.36937014    -0.13370000
opls_145-173    C    0.78587007    0.38500000    0.40510010    -0.11940000
opls_142-174    C    0.84748011    0.44500008    0.31961979    0.06830000
opls_145-175    C    0.89599997    0.42917007    0.23451003    -0.17450000
opls_145-176    C    0.88280998    0.44474997    0.24998977    0.18580000
opls_145-177    C    0.89212009    0.47120004    0.22129999    -0.17800000
opls_145-178    C    0.91425008    0.48167008    0.17820999    -0.12130000
opls_700-179    C    0.92728006    0.46592005    0.16293992    0.06910000
opls_145-180    C    0.91811992    0.43966000    0.19142003    -0.12100000
opls_141-181    C    0.94971004    0.47640004    0.11476006    -0.06210000
opls_543-182    C    0.97665005    0.48893992    0.13103015    0.16890000
opls_700-183    C    0.74647997    0.38326004    0.46700001    0.02920000
opls_145-184    C    0.72099996    0.36727006    0.43423991    -0.18150000
opls_700-185    C    0.69583002    0.35160997    0.46705998    0.05950000
opls_716-186    C    0.91353989    0.45919994    0.03142022    -0.20390000
opls_543-187    C    0.94158007    0.47265011    0.95047979    0.18880000
opls_716-188    C    0.98618000    0.49347995    0.80422978    -0.16660000
opls_700-189    C    0.39917999    0.62625993    0.43127981    0.06670000
opls_145-190    C    0.42832004    0.64360011    0.42163984    -0.12100000
opls_145-191    C    0.44318996    0.63391001    0.38604006    -0.12860000
opls_700-192    C    0.42906996    0.60682007    0.35924015    0.06600000
opls_145-193    C    0.39982008    0.58942001    0.36937014    -0.13370000
opls_145-194    C    0.38500004    0.59913000    0.40510010    -0.11940000
opls_142-195    C    0.44499999    0.59751995    0.31961979    0.06830000
opls_145-196    C    0.42917009    0.53317008    0.23451003    -0.17440000
opls_145-197    C    0.44475006    0.56194010    0.24998977    0.18580000
opls_145-198    C    0.47119999    0.57908011    0.22129999    -0.17810000
opls_145-199    C    0.48167010    0.56742004    0.17820999    -0.12130000
opls_700-200    C    0.46592005    0.53864008    0.16293992    0.06910000
opls_145-201    C    0.43965999    0.52154006    0.19142003    -0.12100000
opls_141-202    C    0.47640005    0.52669013    0.11476006    -0.06210000
opls_543-203    C    0.48894012    0.51229009    0.13103015    0.16900000
opls_700-204    C    0.38326003    0.63678012    0.46700001    0.02920000
opls_145-205    C    0.36727006    0.64627004    0.43423991    -0.18150000
opls_700-206    C    0.35161009    0.65578006    0.46705998    0.05900000
opls_716-207    C    0.45919999    0.54566003    0.03142022    -0.20390000
opls_543-208    C    0.47264998    0.53106998    0.95047979    0.18880000
opls_716-209    C    0.49347998    0.50730000    0.80422978    -0.16660000
opls_700-210    C    0.37374001    0.77292005    0.43127981    0.06670000
opls_145-211    C    0.35640003    0.78471998    0.42163984    -0.12090000
opls_145-212    C    0.36609004    0.80928006    0.38604006    -0.12860000
opls_700-213    C    0.39318008    0.82225012    0.35924015    0.06590000
opls_145-214    C    0.41058002    0.81040004    0.36937014    -0.13360000
opls_145-215    C    0.40087003    0.78587001    0.40510010    -0.11940000
opls_142-216    C    0.40248012    0.84748012    0.31961979    0.06830000
opls_145-217    C    0.46683006    0.89599999    0.23451003    -0.17450000
opls_145-218    C    0.43806002    0.88281008    0.24998977    0.18580000
opls_145-219    C    0.42092002    0.89212014    0.22129999    -0.17810000
opls_145-220    C    0.43257998    0.91425003    0.17820999    -0.12130000
opls_700-221    C    0.46136001    0.92727998    0.16293992    0.06910000
opls_145-222    C    0.47846004    0.91812015    0.19142003    -0.12100000
opls_141-223    C    0.47331009    0.94971012    0.11476006    -0.06210000
opls_543-224    C    0.48771004    0.97665004    0.13103015    0.16890000
opls_700-225    C    0.36322004    0.74648013    0.46700001    0.02920000
opls_145-226    C    0.35373008    0.72100003    0.43423991    -0.18150000
opls_700-227    C    0.34422004    0.69583012    0.46705998    0.05570000
opls_716-228    C    0.45434000    0.91354012    0.03142022    -0.20390000
opls_543-229    C    0.46893010    0.94158014    0.95047979    0.18880000
opls_716-230    C    0.49270002    0.98617995    0.80422978    -0.16660000
opls_700-231    C    0.22708000    0.60082002    0.43127981    0.06670000
opls_145-232    C    0.21528004    0.57168013    0.42163984    -0.12100000
opls_145-233    C    0.19072000    0.55680993    0.38604006    -0.12860000
opls_700-234    C    0.17775006    0.57093002    0.35924015    0.06590000
opls_145-235    C    0.18959991    0.60017994    0.36937014    -0.13370000
opls_145-236    C    0.21412993    0.61500000    0.40510010    -0.11940000
opls_142-237    C    0.15251989    0.55499992    0.31961979    0.06830000
opls_145-238    C    0.10400003    0.57082993    0.23451003    -0.17450000
opls_145-239    C    0.11719002    0.55525003    0.24998977    0.18580000
opls_145-240    C    0.10787991    0.52879996    0.22129999    -0.17810000
opls_145-241    C    0.08574992    0.51832992    0.17820999    -0.12120000
opls_700-242    C    0.07271994    0.53407995    0.16293992    0.06910000
opls_145-243    C    0.08188008    0.56034000    0.19142003    -0.12100000
opls_141-244    C    0.05028996    0.52359996    0.11476006    -0.06210000
opls_543-245    C    0.02334995    0.51106008    0.13103015    0.16900000
opls_700-246    C    0.25352003    0.61673996    0.46700001    0.02920000
opls_145-247    C    0.27900004    0.63272994    0.43423991    -0.18150000
opls_700-248    C    0.30416998    0.64839003    0.46705998    0.05950000
opls_716-249    C    0.08646011    0.54080006    0.03142022    -0.20390000
opls_543-250    C    0.05842003    0.52735010    0.95047979    0.18880000
opls_716-251    C    0.01382000    0.50652005    0.80422978    -0.16660000
opls_701-252    C    0.33333011    0.66667012    0.43790017    -0.07840000
opls_701-253    C    0.66666999    0.33333009    0.43790017    -0.07850000
opls_701-254    C    0.66666999    0.33333009    0.56209983    -0.07840000
opls_701-255    C    0.33333011    0.66667012    0.56209983    -0.07850000
opls_750-256    N    0.43223007    0.57303012    0.70785982    -0.34800000
opls_750-257    N    0.42697005    0.85920007    0.70785982    -0.34800000
opls_750-258    N    0.14079999    0.56777003    0.70785982    -0.34790000
opls_750-259    N    0.56777004    0.42697009    0.70785982    -0.34790000
opls_750-260    N    0.57302995    0.14079993    0.70785982    -0.34800000
opls_750-261    N    0.85920001    0.43222997    0.70785982    -0.34800000
opls_750-262    N    0.56777004    0.42697009    0.29214018    -0.34800000
opls_750-263    N    0.57302995    0.14079993    0.29214018    -0.34800000
opls_750-264    N    0.85920001    0.43222997    0.29214018    -0.34790000
opls_750-265    N    0.43223007    0.57303012    0.29214018    -0.34800000
opls_750-266    N    0.42697005    0.85920007    0.29214018    -0.34790000
opls_750-267    N    0.14079999    0.56777003    0.29214018    -0.34780000
opls_542-268    N    0.50000014    0.50000011    0.08857011    -0.31070000
opls_542-269    N    0.50000000    0.00000000    0.08857011    -0.31070000
opls_542-270    N    0.99999996    0.50000011    0.08857011    -0.31070000
opls_542-271    N    0.50000014    0.50000011    0.91142989    -0.31060000
opls_542-272    N    0.50000000    0.00000000    0.91142989    -0.31060000
opls_542-273    N    0.99999996    0.50000011    0.91142989    -0.31070000
opls_542-274    N    0.48114003    0.52163994    0.00000000    -0.31480000
opls_542-275    N    0.47836010    0.95950009    0.00000000    -0.31480000
opls_542-276    N    0.04050005    0.51885997    0.00000000    -0.31480000
opls_542-277    N    0.51885997    0.47836006    0.00000000    -0.31480000
opls_542-278    N    0.52163990    0.04049991    0.00000000    -0.31480000
opls_542-279    N    0.95949995    0.48114003    0.00000000    -0.31480000
opls_146-280    H    0.43944996    0.66473993    0.55895980    0.11020000
opls_146-281    H    0.46567004    0.64772011    0.62128000    0.11020000
opls_146-282    H    0.38834008    0.56845010    0.65072991    0.11490000
opls_146-283    H    0.36245996    0.58557995    0.58794016    0.11320000
opls_144-284    H    0.46747001    0.61165994    0.68625020    0.11830000
opls_146-285    H    0.40867992    0.51978000    0.74442011    0.11280000
opls_146-286    H    0.48358005    0.60151004    0.76959004    0.11690000
opls_146-287    H    0.50184002    0.58090005    0.84409979    0.11250000
opls_146-288    H    0.42719006    0.49931009    0.82039016    0.11120000
opls_146-289    H    0.36701993    0.64620995    0.61611993    0.10990000
opls_547-290    H    0.45015004    0.55522993    0.93930979    0.11430000
opls_547-291    H    0.48740008    0.51418008    0.23725999    0.11490000
opls_146-292    H    0.33525999    0.77470995    0.55895980    0.11020000
opls_146-293    H    0.35227994    0.81795004    0.62128000    0.11030000
opls_146-294    H    0.43154998    0.81988997    0.65072991    0.11490000
opls_146-295    H    0.41442010    0.77688009    0.58794016    0.11320000
opls_144-296    H    0.38834003    0.85581007    0.68625020    0.11830000
opls_146-297    H    0.48021996    0.88890006    0.74442011    0.11280000
opls_146-298    H    0.39849007    0.88207012    0.76959004    0.11690000
opls_146-299    H    0.41910005    0.92094010    0.84409979    0.11250000
opls_146-300    H    0.50068997    0.92788007    0.82039016    0.11120000
opls_146-301    H    0.35378992    0.72081001    0.61611993    0.10990000
opls_547-302    H    0.44476991    0.89492000    0.93930979    0.11430000
opls_547-303    H    0.48582004    0.97322005    0.23725999    0.11490000
opls_146-304    H    0.22529006    0.56055012    0.55895980    0.11020000
opls_146-305    H    0.18204994    0.53433005    0.62128000    0.11020000
opls_146-306    H    0.18010994    0.61165994    0.65072991    0.11490000
opls_146-307    H    0.22311993    0.63753996    0.58794016    0.11320000
opls_144-308    H    0.14418997    0.53253000    0.68625020    0.11830000
opls_146-309    H    0.11109994    0.59131995    0.74442011    0.11280000
opls_146-310    H    0.11792998    0.51642005    0.76959004    0.11690000
opls_146-311    H    0.07906004    0.49816006    0.84409979    0.11250000
opls_146-312    H    0.07212007    0.57281006    0.82039016    0.11120000
opls_146-313    H    0.27918997    0.63298004    0.61611993    0.10990000
opls_547-314    H    0.10508005    0.54985007    0.93930979    0.11430000
opls_547-315    H    0.02677999    0.51260008    0.23725999    0.11490000
opls_146-316    H    0.56055004    0.33526007    0.55895980    0.11020000
opls_146-317    H    0.53433007    0.35228010    0.62128000    0.11020000
opls_146-318    H    0.61166003    0.43155011    0.65072991    0.11490000
opls_146-319    H    0.63754004    0.41442005    0.58794016    0.11320000
opls_144-320    H    0.53252999    0.38834006    0.68625020    0.11830000
opls_146-321    H    0.59132008    0.48022000    0.74442011    0.11280000
opls_146-322    H    0.51641995    0.39848996    0.76959004    0.11690000
opls_146-323    H    0.49815998    0.41909995    0.84409979    0.11260000
opls_146-324    H    0.57281005    0.50069012    0.82039016    0.11120000
opls_146-325    H    0.63298007    0.35379005    0.61611993    0.11000000
opls_547-326    H    0.54984996    0.44477007    0.93930979    0.11430000
opls_547-327    H    0.51259992    0.48581992    0.23725999    0.11500000
opls_146-328    H    0.66474001    0.22529005    0.55895980    0.11020000
opls_146-329    H    0.64772006    0.18204996    0.62128000    0.11020000
opls_146-330    H    0.56845002    0.18011003    0.65072991    0.11490000
opls_146-331    H    0.58557990    0.22311991    0.58794016    0.11320000
opls_144-332    H    0.61165997    0.14418993    0.68625020    0.11840000
opls_146-333    H    0.51978004    0.11109994    0.74442011    0.11280000
opls_146-334    H    0.60151004    0.11793009    0.76959004    0.11690000
opls_146-335    H    0.58089995    0.07905990    0.84409979    0.11250000
opls_146-336    H    0.49931003    0.07211993    0.82039016    0.11130000
opls_146-337    H    0.64621008    0.27918999    0.61611993    0.10990000
opls_547-338    H    0.55523009    0.10508000    0.93930979    0.11430000
opls_547-339    H    0.51417996    0.02677995    0.23725999    0.11490000
opls_146-340    H    0.77471005    0.43945009    0.55895980    0.11020000
opls_146-341    H    0.81795006    0.46566995    0.62128000    0.11020000
opls_146-342    H    0.81989006    0.38834006    0.65072991    0.11490000
opls_146-343    H    0.77688007    0.36246004    0.58794016    0.11320000
opls_144-344    H    0.85581003    0.46747000    0.68625020    0.11830000
opls_146-345    H    0.88890006    0.40868005    0.74442011    0.11280000
opls_146-346    H    0.88207002    0.48357995    0.76959004    0.11690000
opls_146-347    H    0.92093996    0.50183994    0.84409979    0.11250000
opls_146-348    H    0.92787993    0.42718994    0.82039016    0.11120000
opls_146-349    H    0.72081003    0.36701996    0.61611993    0.10990000
opls_547-350    H    0.89491995    0.45014993    0.93930979    0.11430000
opls_547-351    H    0.97322012    0.48740013    0.23725999    0.11490000
opls_146-352    H    0.56055004    0.33526007    0.44104020    0.11020000
opls_146-353    H    0.53433007    0.35228010    0.37872000    0.11030000
opls_146-354    H    0.61166003    0.43155011    0.34927009    0.11490000
opls_146-355    H    0.63754004    0.41442005    0.41205984    0.11320000
opls_144-356    H    0.53252999    0.38834006    0.31374980    0.11830000
opls_146-357    H    0.59132008    0.48022000    0.25557989    0.11280000
opls_146-358    H    0.51641995    0.39848996    0.23040996    0.11690000
opls_146-359    H    0.49815998    0.41909995    0.15590021    0.11250000
opls_146-360    H    0.57281005    0.50069012    0.17960984    0.11120000
opls_146-361    H    0.63298007    0.35379005    0.38388007    0.10990000
opls_547-362    H    0.54984996    0.44477007    0.06069021    0.11430000
opls_547-363    H    0.51259992    0.48581992    0.76274001    0.11490000
opls_146-364    H    0.66474001    0.22529005    0.44104020    0.11020000
opls_146-365    H    0.64772006    0.18204996    0.37872000    0.11020000
opls_146-366    H    0.56845002    0.18011003    0.34927009    0.11490000
opls_146-367    H    0.58557990    0.22311991    0.41205984    0.11320000
opls_144-368    H    0.61165997    0.14418993    0.31374980    0.11830000
opls_146-369    H    0.51978004    0.11109994    0.25557989    0.11280000
opls_146-370    H    0.60151004    0.11793009    0.23040996    0.11690000
opls_146-371    H    0.58089995    0.07905990    0.15590021    0.11250000
opls_146-372    H    0.49931003    0.07211993    0.17960984    0.11130000
opls_146-373    H    0.64621008    0.27918999    0.38388007    0.10990000
opls_547-374    H    0.55523009    0.10508000    0.06069021    0.11430000
opls_547-375    H    0.51417996    0.02677995    0.76274001    0.11490000
opls_146-376    H    0.77471005    0.43945009    0.44104020    0.11020000
opls_146-377    H    0.81795006    0.46566995    0.37872000    0.11020000
opls_146-378    H    0.81989006    0.38834006    0.34927009    0.11490000
opls_146-379    H    0.77688007    0.36246004    0.41205984    0.11320000
opls_144-380    H    0.85581003    0.46747000    0.31374980    0.11830000
opls_146-381    H    0.88890006    0.40868005    0.25557989    0.11280000
opls_146-382    H    0.88207002    0.48357995    0.23040996    0.11690000
opls_146-383    H    0.92093996    0.50183994    0.15590021    0.11260000
opls_146-384    H    0.92787993    0.42718994    0.17960984    0.11120000
opls_146-385    H    0.72081003    0.36701996    0.38388007    0.10990000
opls_547-386    H    0.89491995    0.45014993    0.06069021    0.11430000
opls_547-387    H    0.97322012    0.48740013    0.76274001    0.11490000
opls_146-388    H    0.43944996    0.66473993    0.44104020    0.11020000
opls_146-389    H    0.46567004    0.64772011    0.37872000    0.11020000
opls_146-390    H    0.38834008    0.56845010    0.34927009    0.11490000
opls_146-391    H    0.36245996    0.58557995    0.41205984    0.11320000
opls_144-392    H    0.46747001    0.61165994    0.31374980    0.11830000
opls_146-393    H    0.40867992    0.51978000    0.25557989    0.11280000
opls_146-394    H    0.48358005    0.60151004    0.23040996    0.11690000
opls_146-395    H    0.50184002    0.58090005    0.15590021    0.11250000
opls_146-396    H    0.42719006    0.49931009    0.17960984    0.11120000
opls_146-397    H    0.36701993    0.64620995    0.38388007    0.10990000
opls_547-398    H    0.45015004    0.55522993    0.06069021    0.11430000
opls_547-399    H    0.48740008    0.51418008    0.76274001    0.11490000
opls_146-400    H    0.33525999    0.77470995    0.44104020    0.11030000
opls_146-401    H    0.35227994    0.81795004    0.37872000    0.11020000
opls_146-402    H    0.43154998    0.81988997    0.34927009    0.11490000
opls_146-403    H    0.41442010    0.77688009    0.41205984    0.11320000
opls_144-404    H    0.38834003    0.85581007    0.31374980    0.11830000
opls_146-405    H    0.48021996    0.88890006    0.25557989    0.11280000
opls_146-406    H    0.39849007    0.88207012    0.23040996    0.11690000
opls_146-407    H    0.41910005    0.92094010    0.15590021    0.11250000
opls_146-408    H    0.50068997    0.92788007    0.17960984    0.11120000
opls_146-409    H    0.35378992    0.72081001    0.38388007    0.10990000
opls_547-410    H    0.44476991    0.89492000    0.06069021    0.11440000
opls_547-411    H    0.48582004    0.97322005    0.76274001    0.11490000
opls_146-412    H    0.22529006    0.56055012    0.44104020    0.11020000
opls_146-413    H    0.18204994    0.53433005    0.37872000    0.11020000
opls_146-414    H    0.18010994    0.61165994    0.34927009    0.11490000
opls_146-415    H    0.22311993    0.63753996    0.41205984    0.11320000
opls_144-416    H    0.14418997    0.53253000    0.31374980    0.11830000
opls_146-417    H    0.11109994    0.59131995    0.25557989    0.11280000
opls_146-418    H    0.11792998    0.51642005    0.23040996    0.11690000
opls_146-419    H    0.07906004    0.49816006    0.15590021    0.11250000
opls_146-420    H    0.07212007    0.57281006    0.17960984    0.11130000
opls_146-421    H    0.27918997    0.63298004    0.38388007    0.10990000
opls_547-422    H    0.10508005    0.54985007    0.06069021    0.11430000
opls_547-423    H    0.02677999    0.51260008    0.76274001    0.11490000
opls_702-424    H    0.33333011    0.66667012    0.38621998    0.07830000
opls_702-425    H    0.66666999    0.33333009    0.38621998    0.07830000
opls_702-426    H    0.66666999    0.33333009    0.61378002    0.07830000
opls_702-427    H    0.33333011    0.66667012    0.61378002    0.07830000
F2_Ni4+2-428    Ni    0.50000014    0.50000011    0.00000000    0.44610000
F2_Ni4+2-429    Ni    0.50000000    0.00000000    0.00000000    0.44600000
F2_Ni4+2-430    Ni    0.99999996    0.50000011    0.00000000    0.44600000
