#======================================================================
# Crystal Data Generated By AuToFF
#----------------------------------------------------------------------

data_AuToFF_phase_1

_cell_length_a                         27.0500
_cell_length_b                         27.0500
_cell_length_c                         8.6400
_cell_angle_alpha                      90.00
_cell_angle_beta                       90.00
_cell_angle_gamma                      90.00
_symmetry_space_group_name_H-M_alt     'P 1'
_symmetry_space_group_IT_number        1

loop_
_space_group_symop_operation_xyz
   'x, y, z'

loop_
   _atom_site_label
   _atom_site_type_symbol
   _atom_site_fract_x
   _atom_site_fract_y
   _atom_site_fract_z
   _atom_site_charge
opls_700-0    C    0.87600000    0.86708983    0.24415046    0.06960000
opls_145-1    C    0.88202994    0.82460000    0.33543056    -0.11850000
opls_145-2    C    0.84729982    0.78639002    0.33098958    -0.15860000
opls_145-3    C    0.80505989    0.79040998    0.23646991    0.18680000
opls_145-4    C    0.79870018    0.83309982    0.14745023    -0.16820000
opls_145-5    C    0.83390018    0.87081996    0.15015046    -0.12180000
opls_700-6    C    0.35588983    0.38921996    0.25910995    0.06260000
opls_145-7    C    0.35460998    0.34563993    0.17081944    -0.11820000
opls_145-8    C    0.31473013    0.31300000    0.18246991    -0.12480000
opls_700-9    C    0.27474011    0.32390018    0.28039005    0.06850000
opls_145-10    C    0.27518004    0.36815009    0.36457986    -0.11990000
opls_145-11    C    0.31548983    0.40020998    0.35490046    -0.12260000
opls_142-12    C    0.71046987    0.23277006    0.20143981    0.03010000
opls_700-13    C    0.08625989    0.09245989    0.24656944    -0.08560000
opls_700-14    C    0.42286987    0.60020998    0.24579977    -0.07450000
opls_543-15    C    0.40288983    0.55276007    0.21856944    0.21400000
opls_543-16    C    0.39245989    0.47360998    0.22354051    0.21480000
opls_716-17    C    0.34819002    0.49400000    0.17478009    -0.19950000
opls_716-18    C    0.35491017    0.54391017    0.17015046    -0.19950000
opls_543-19    C    0.89555009    0.03620998    0.28084028    0.19260000
opls_543-20    C    0.95641996    0.10179002    0.22315046    0.21480000
opls_716-21    C    0.96935009    0.14879002    0.17443056    -0.19950000
opls_716-22    C    0.01970018    0.15039002    0.17107986    -0.12770000
opls_700-23    C    0.12400000    0.13291017    0.24415046    0.06960000
opls_145-24    C    0.11797006    0.17540000    0.33543056    -0.11850000
opls_145-25    C    0.15270018    0.21360998    0.33098958    -0.16910000
opls_145-26    C    0.19494011    0.20959002    0.23646991    0.18680000
opls_145-27    C    0.20130018    0.16689982    0.14745023    -0.16820000
opls_145-28    C    0.16610018    0.12918004    0.15015046    -0.12180000
opls_700-29    C    0.64411017    0.61078004    0.25910995    0.06260000
opls_145-30    C    0.64539002    0.65436007    0.17081944    -0.11840000
opls_145-31    C    0.68526987    0.68700000    0.18246991    -0.12470000
opls_700-32    C    0.72525989    0.67610018    0.28039005    0.06850000
opls_145-33    C    0.72481996    0.63184991    0.36457986    -0.11990000
opls_145-34    C    0.68451017    0.59979002    0.35490046    -0.12260000
opls_142-35    C    0.28953013    0.76722994    0.20143981    0.03010000
opls_700-36    C    0.91374011    0.90754011    0.24656944    -0.08560000
opls_700-37    C    0.57713013    0.39979002    0.24579977    -0.07450000
opls_543-38    C    0.59711017    0.44723993    0.21856944    0.21400000
opls_543-39    C    0.60754011    0.52639002    0.22354051    0.21480000
opls_716-40    C    0.65180998    0.50600000    0.17478009    -0.19950000
opls_716-41    C    0.64508983    0.45608983    0.17015046    -0.19950000
opls_543-42    C    0.10444991    0.96379002    0.28084028    0.19270000
opls_543-43    C    0.04358004    0.89820998    0.22315046    0.21480000
opls_716-44    C    0.03064991    0.85120998    0.17443056    -0.19950000
opls_716-45    C    0.98030018    0.84960998    0.17107986    -0.12770000
opls_700-46    C    0.13291017    0.87600000    0.24415046    0.06960000
opls_145-47    C    0.17540000    0.88202994    0.33543056    -0.11850000
opls_145-48    C    0.21360998    0.84729982    0.33098958    -0.16920000
opls_145-49    C    0.20959002    0.80505989    0.23646991    0.18680000
opls_145-50    C    0.16689982    0.79870018    0.14745023    -0.16810000
opls_145-51    C    0.12918004    0.83390018    0.15015046    -0.12180000
opls_700-52    C    0.61078004    0.35588983    0.25910995    0.06260000
opls_145-53    C    0.65436007    0.35460998    0.17081944    -0.11840000
opls_145-54    C    0.68700000    0.31473013    0.18246991    -0.12480000
opls_700-55    C    0.67610018    0.27474011    0.28039005    0.06850000
opls_145-56    C    0.63184991    0.27518004    0.36457986    -0.11990000
opls_145-57    C    0.59979002    0.31548983    0.35490046    -0.12260000
opls_142-58    C    0.76722994    0.71046987    0.20143981    0.03010000
opls_700-59    C    0.90754011    0.08625989    0.24656944    -0.08560000
opls_700-60    C    0.39979002    0.42286987    0.24579977    -0.07450000
opls_543-61    C    0.44723993    0.40288983    0.21856944    0.21400000
opls_543-62    C    0.52639002    0.39245989    0.22354051    0.21480000
opls_716-63    C    0.50600000    0.34819002    0.17478009    -0.19950000
opls_716-64    C    0.45608983    0.35491017    0.17015046    -0.19950000
opls_543-65    C    0.96379002    0.89555009    0.28084028    0.19260000
opls_543-66    C    0.89820998    0.95641996    0.22315046    0.21480000
opls_716-67    C    0.85120998    0.96935009    0.17443056    -0.19950000
opls_716-68    C    0.84960998    0.01970018    0.17107986    -0.12770000
opls_700-69    C    0.86708983    0.12400000    0.24415046    0.06960000
opls_145-70    C    0.82460000    0.11797006    0.33543056    -0.11850000
opls_145-71    C    0.78639002    0.15270018    0.33098958    -0.16920000
opls_145-72    C    0.79040998    0.19494011    0.23646991    0.18680000
opls_145-73    C    0.83309982    0.20130018    0.14745023    -0.16820000
opls_145-74    C    0.87081996    0.16610018    0.15015046    -0.12180000
opls_700-75    C    0.38921996    0.64411017    0.25910995    0.06260000
opls_145-76    C    0.34563993    0.64539002    0.17081944    -0.11840000
opls_145-77    C    0.31300000    0.68526987    0.18246991    -0.12480000
opls_700-78    C    0.32390018    0.72525989    0.28039005    0.06850000
opls_145-79    C    0.36815009    0.72481996    0.36457986    -0.11990000
opls_145-80    C    0.40020998    0.68451017    0.35490046    -0.12260000
opls_142-81    C    0.23277006    0.28953013    0.20143981    0.03010000
opls_700-82    C    0.09245989    0.91374011    0.24656944    -0.08560000
opls_700-83    C    0.60020998    0.57713013    0.24579977    -0.07450000
opls_543-84    C    0.55276007    0.59711017    0.21856944    0.21400000
opls_543-85    C    0.47360998    0.60754011    0.22354051    0.21480000
opls_716-86    C    0.49400000    0.65180998    0.17478009    -0.19950000
opls_716-87    C    0.54391017    0.64508983    0.17015046    -0.19950000
opls_543-88    C    0.03620998    0.10444991    0.28084028    0.19260000
opls_543-89    C    0.10179002    0.04358004    0.22315046    0.21480000
opls_716-90    C    0.14879002    0.03064991    0.17443056    -0.19950000
opls_716-91    C    0.15039002    0.98030018    0.17107986    -0.12770000
opls_700-92    C    0.87624991    0.37719002    0.61189005    0.06960000
opls_145-93    C    0.88227985    0.33469982    0.70315972    -0.11850000
opls_145-94    C    0.84755009    0.29648983    0.69871991    -0.16910000
opls_145-95    C    0.80531017    0.30051017    0.60420023    0.18680000
opls_145-96    C    0.79895009    0.34320000    0.51518056    -0.16820000
opls_145-97    C    0.83415009    0.38092015    0.51787963    -0.12180000
opls_700-98    C    0.35614011    0.89932015    0.62684954    0.06260000
opls_145-99    C    0.35485989    0.85574011    0.53854977    -0.11840000
opls_145-100    C    0.31498004    0.82310018    0.55020023    -0.12480000
opls_700-101    C    0.27499002    0.83400000    0.64812037    0.06850000
opls_145-102    C    0.27542994    0.87824991    0.73231019    -0.11990000
opls_145-103    C    0.31574011    0.91031017    0.72262963    -0.12260000
opls_142-104    C    0.71072015    0.74286987    0.56918056    0.03010000
opls_700-105    C    0.08651017    0.60256007    0.61431019    -0.08560000
opls_700-106    C    0.42312015    0.11031017    0.61354051    -0.07450000
opls_543-107    C    0.40314011    0.06285989    0.58631019    0.21400000
opls_543-108    C    0.39271017    0.98371017    0.59126968    0.21480000
opls_716-109    C    0.34843993    0.00410018    0.54251968    -0.19950000
opls_716-110    C    0.35516007    0.05400998    0.53787963    -0.19950000
opls_543-111    C    0.89580000    0.54631017    0.64856944    0.19260000
opls_543-112    C    0.95666987    0.61188983    0.59087963    0.21480000
opls_716-113    C    0.96960000    0.65888983    0.54215972    -0.19950000
opls_716-114    C    0.01995009    0.66048983    0.53881019    -0.12770000
opls_700-115    C    0.12424991    0.64300998    0.61189005    0.06960000
opls_145-116    C    0.11821996    0.68549982    0.70315972    -0.11850000
opls_145-117    C    0.15295009    0.72371017    0.69871991    -0.16920000
opls_145-118    C    0.19519002    0.71968983    0.60420023    0.18680000
opls_145-119    C    0.20155009    0.67700000    0.51518056    -0.16820000
opls_145-120    C    0.16635009    0.63927985    0.51787963    -0.12180000
opls_700-121    C    0.64436007    0.12087985    0.62684954    0.06260000
opls_145-122    C    0.64563993    0.16445989    0.53854977    -0.11840000
opls_145-123    C    0.68552015    0.19709982    0.55020023    -0.12480000
opls_700-124    C    0.72551017    0.18620000    0.64812037    0.06850000
opls_145-125    C    0.72506987    0.14195009    0.73231019    -0.11990000
opls_145-126    C    0.68476007    0.10988983    0.72262963    -0.12260000
opls_142-127    C    0.28978004    0.27733013    0.56918056    0.03010000
opls_700-128    C    0.91399002    0.41763993    0.61431019    -0.08560000
opls_700-129    C    0.57738004    0.90988983    0.61354051    -0.07450000
opls_543-130    C    0.59736007    0.95734011    0.58631019    0.21400000
opls_543-131    C    0.60779002    0.03648983    0.59126968    0.21480000
opls_716-132    C    0.65205989    0.01609982    0.54251968    -0.19950000
opls_716-133    C    0.64534011    0.96619002    0.53787963    -0.19950000
opls_543-134    C    0.10470018    0.47388983    0.64856944    0.19260000
opls_543-135    C    0.04382994    0.40831017    0.59087963    0.21480000
opls_716-136    C    0.03089982    0.36131017    0.54215972    -0.19940000
opls_716-137    C    0.98055009    0.35971017    0.53881019    -0.12770000
opls_700-138    C    0.13316007    0.38610018    0.61189005    0.06960000
opls_145-139    C    0.17564991    0.39213013    0.70315972    -0.11850000
opls_145-140    C    0.21385989    0.35740000    0.69871991    -0.16920000
opls_145-141    C    0.20983993    0.31516007    0.60420023    0.18680000
opls_145-142    C    0.16715009    0.30880000    0.51518056    -0.16820000
opls_145-143    C    0.12942994    0.34400000    0.51787963    -0.12180000
opls_700-144    C    0.61102994    0.86599002    0.62684954    0.06260000
opls_145-145    C    0.65460998    0.86471017    0.53854977    -0.11840000
opls_145-146    C    0.68724991    0.82482994    0.55020023    -0.12480000
opls_700-147    C    0.67635009    0.78483993    0.64812037    0.06850000
opls_145-148    C    0.63209982    0.78527985    0.73231019    -0.11980000
opls_145-149    C    0.60003993    0.82559002    0.72262963    -0.12260000
opls_142-150    C    0.76747985    0.22057006    0.56918056    0.03010000
opls_700-151    C    0.90779002    0.59636007    0.61431019    -0.08560000
opls_700-152    C    0.40003993    0.93297006    0.61354051    -0.07450000
opls_543-153    C    0.44748983    0.91299002    0.58631019    0.21410000
opls_543-154    C    0.52663993    0.90256007    0.59126968    0.21480000
opls_716-155    C    0.50624991    0.85828983    0.54251968    -0.19950000
opls_716-156    C    0.45634011    0.86500998    0.53787963    -0.19940000
opls_543-157    C    0.96403993    0.40564991    0.64856944    0.19260000
opls_543-158    C    0.89845989    0.46652015    0.59087963    0.21480000
opls_716-159    C    0.85145989    0.47944991    0.54215972    -0.19950000
opls_716-160    C    0.84985989    0.52980000    0.53881019    -0.12770000
opls_700-161    C    0.86734011    0.63410018    0.61189005    0.06970000
opls_145-162    C    0.82484991    0.62806987    0.70315972    -0.11850000
opls_145-163    C    0.78663993    0.66280000    0.69871991    -0.16910000
opls_145-164    C    0.79065989    0.70503993    0.60420023    0.18680000
opls_145-165    C    0.83335009    0.71140000    0.51518056    -0.16130000
opls_145-166    C    0.87106987    0.67620000    0.51787963    -0.12180000
opls_700-167    C    0.38946987    0.15420998    0.62684954    0.06260000
opls_145-168    C    0.34588983    0.15548983    0.53854977    -0.11840000
opls_145-169    C    0.31324991    0.19537006    0.55020023    -0.12480000
opls_700-170    C    0.32415009    0.23536007    0.64812037    0.06850000
opls_145-171    C    0.36840000    0.23492015    0.73231019    -0.11990000
opls_145-172    C    0.40045989    0.19460998    0.72262963    -0.12260000
opls_142-173    C    0.23301996    0.79962994    0.56918056    0.03010000
opls_700-174    C    0.09271017    0.42383993    0.61431019    -0.08560000
opls_700-175    C    0.60045989    0.08722994    0.61354051    -0.07450000
opls_543-176    C    0.55300998    0.10720998    0.58631019    0.21400000
opls_543-177    C    0.47385989    0.11763993    0.59126968    0.21480000
opls_716-178    C    0.49424991    0.16191017    0.54251968    -0.19950000
opls_716-179    C    0.54416007    0.15519002    0.53787963    -0.19950000
opls_543-180    C    0.03645989    0.61455009    0.64856944    0.19260000
opls_543-181    C    0.10203993    0.55367985    0.59087963    0.21480000
opls_716-182    C    0.14903993    0.54075009    0.54215972    -0.19950000
opls_716-183    C    0.15063993    0.49040000    0.53881019    -0.12770000
opls_750-184    N    0.24717006    0.76755009    0.27226042    -0.32780000
opls_542-185    N    0.42636007    0.50958004    0.24887963    -0.38740000
opls_542-186    N    0.99741996    0.07420998    0.24887037    -0.38750000
opls_750-187    N    0.75282994    0.23244991    0.27226042    -0.32780000
opls_542-188    N    0.57363993    0.49041996    0.24887963    -0.38740000
opls_542-189    N    0.00258004    0.92579002    0.24887037    -0.38750000
opls_750-190    N    0.23244991    0.24717006    0.27226042    -0.32770000
opls_542-191    N    0.49041996    0.42636007    0.24887963    -0.38750000
opls_542-192    N    0.92579002    0.99741996    0.24887037    -0.38750000
opls_750-193    N    0.76755009    0.75282994    0.27226042    -0.32790000
opls_542-194    N    0.50958004    0.57363993    0.24887963    -0.38750000
opls_542-195    N    0.07420998    0.00258004    0.24887037    -0.38740000
opls_750-196    N    0.24741996    0.27764991    0.63998958    -0.32790000
opls_542-197    N    0.42660998    0.01967985    0.61662037    -0.38750000
opls_542-198    N    0.99766987    0.58431017    0.61660995    -0.38750000
opls_750-199    N    0.75307985    0.74255009    0.63998958    -0.32790000
opls_542-200    N    0.57388983    0.00052015    0.61662037    -0.38730000
opls_542-201    N    0.00282994    0.43588983    0.61660995    -0.38750000
opls_750-202    N    0.23269982    0.75726987    0.63998958    -0.32790000
opls_542-203    N    0.49066987    0.93645989    0.61662037    -0.38750000
opls_542-204    N    0.92603993    0.50752015    0.61660995    -0.38750000
opls_750-205    N    0.76780000    0.26293013    0.63998958    -0.32790000
opls_542-206    N    0.50982994    0.08374011    0.61662037    -0.38750000
opls_542-207    N    0.07445989    0.51267985    0.61660995    -0.38750000
opls_146-208    H    0.91381996    0.82100000    0.41010995    0.12270000
opls_144-209    H    0.85379002    0.75459002    0.40343056    -0.11950000
opls_146-210    H    0.76649982    0.83686987    0.07404977    0.12000000
opls_146-211    H    0.82827985    0.90306987    0.07903009    0.11570000
opls_146-212    H    0.38485989    0.33660000    0.09431944    0.11980000
opls_146-213    H    0.31522994    0.27938004    0.11459954    0.12000000
opls_146-214    H    0.24480000    0.37742994    0.44079051    0.11760000
opls_146-215    H    0.31537006    0.43356007    0.42303009    0.10100000
opls_144-216    H    0.69964991    0.20285989    0.12606019    0.09880000
opls_547-217    H    0.31389982    0.47525989    0.14926042    0.11980000
opls_547-218    H    0.32686987    0.57049982    0.13868981    0.11950000
opls_547-219    H    0.94527985    0.17948983    0.14793981    0.11980000
opls_547-220    H    0.04140000    0.18247985    0.14079051    0.11950000
opls_146-221    H    0.08618004    0.17900000    0.41010995    0.12270000
opls_146-222    H    0.14620998    0.24540998    0.40343056    0.09800000
opls_146-223    H    0.23350018    0.16313013    0.07404977    0.12000000
opls_146-224    H    0.17172015    0.09693013    0.07903009    0.11570000
opls_146-225    H    0.61514011    0.66340000    0.09431944    0.11980000
opls_146-226    H    0.68477006    0.72061996    0.11459954    0.12000000
opls_146-227    H    0.75520000    0.62257006    0.44079051    0.11750000
opls_146-228    H    0.68462994    0.56643993    0.42303009    0.10100000
opls_144-229    H    0.30035009    0.79714011    0.12606019    0.09880000
opls_547-230    H    0.68609982    0.52474011    0.14926042    0.11980000
opls_547-231    H    0.67313013    0.42949982    0.13868981    0.11950000
opls_547-232    H    0.05472015    0.82051017    0.14793981    0.11980000
opls_547-233    H    0.95860000    0.81752015    0.14079051    0.11950000
opls_146-234    H    0.17900000    0.91381996    0.41010995    0.12270000
opls_146-235    H    0.24540998    0.85379002    0.40343056    0.09800000
opls_146-236    H    0.16313013    0.76649982    0.07404977    0.12000000
opls_146-237    H    0.09693013    0.82827985    0.07903009    0.11570000
opls_146-238    H    0.66340000    0.38485989    0.09431944    0.11980000
opls_146-239    H    0.72061996    0.31522994    0.11459954    0.12000000
opls_146-240    H    0.62257006    0.24480000    0.44079051    0.11760000
opls_146-241    H    0.56643993    0.31537006    0.42303009    0.10110000
opls_144-242    H    0.79714011    0.69964991    0.12606019    0.09880000
opls_547-243    H    0.52474011    0.31389982    0.14926042    0.11990000
opls_547-244    H    0.42949982    0.32686987    0.13868981    0.11950000
opls_547-245    H    0.82051017    0.94527985    0.14793981    0.11980000
opls_547-246    H    0.81752015    0.04140000    0.14079051    0.11950000
opls_146-247    H    0.82100000    0.08618004    0.41010995    0.12280000
opls_146-248    H    0.75459002    0.14620998    0.40343056    0.09800000
opls_146-249    H    0.83686987    0.23350018    0.07404977    0.12000000
opls_146-250    H    0.90306987    0.17172015    0.07903009    0.11580000
opls_146-251    H    0.33660000    0.61514011    0.09431944    0.11980000
opls_146-252    H    0.27938004    0.68477006    0.11459954    0.12000000
opls_146-253    H    0.37742994    0.75520000    0.44079051    0.11750000
opls_146-254    H    0.43356007    0.68462994    0.42303009    0.10100000
opls_144-255    H    0.20285989    0.30035009    0.12606019    0.09880000
opls_547-256    H    0.47525989    0.68609982    0.14926042    0.11980000
opls_547-257    H    0.57049982    0.67313013    0.13868981    0.11950000
opls_547-258    H    0.17948983    0.05472015    0.14793981    0.11980000
opls_547-259    H    0.18247985    0.95860000    0.14079051    0.11950000
opls_146-260    H    0.91406987    0.33110018    0.77784028    0.12270000
opls_146-261    H    0.85403993    0.26468983    0.77115972    0.09800000
opls_146-262    H    0.76675009    0.34697006    0.44178009    0.12000000
opls_146-263    H    0.82853013    0.41317006    0.44676042    0.11570000
opls_146-264    H    0.38511017    0.84669982    0.46206019    0.11980000
opls_146-265    H    0.31547985    0.78947985    0.48232986    0.12010000
opls_146-266    H    0.24504991    0.88753013    0.80853009    0.11780000
opls_146-267    H    0.31561996    0.94365989    0.79076042    0.10100000
opls_144-268    H    0.69989982    0.71296007    0.49379051    0.12110000
opls_547-269    H    0.31415009    0.98536007    0.51700000    0.11980000
opls_547-270    H    0.32712015    0.08060000    0.50642014    0.12000000
opls_547-271    H    0.94553013    0.68959002    0.51567014    0.11980000
opls_547-272    H    0.04164991    0.69258004    0.50851968    0.11950000
opls_146-273    H    0.08642994    0.68910018    0.77784028    0.12270000
opls_146-274    H    0.14645989    0.75551017    0.77115972    0.09800000
opls_146-275    H    0.23375009    0.67322994    0.44178009    0.12000000
opls_146-276    H    0.17197006    0.60702994    0.44676042    0.11570000
opls_146-277    H    0.61539002    0.17350018    0.46206019    0.11980000
opls_146-278    H    0.68501996    0.23072015    0.48232986    0.12000000
opls_146-279    H    0.75544991    0.13266987    0.80853009    0.11780000
opls_146-280    H    0.68487985    0.07654011    0.79076042    0.10100000
opls_144-281    H    0.30060000    0.30723993    0.49379051    0.12120000
opls_547-282    H    0.68635009    0.03483993    0.51700000    0.11980000
opls_547-283    H    0.67338004    0.93960000    0.50642014    0.12000000
opls_547-284    H    0.05497006    0.33060998    0.51567014    0.11980000
opls_547-285    H    0.95884991    0.32761996    0.50851968    0.11950000
opls_146-286    H    0.17924991    0.42392015    0.77784028    0.12270000
opls_146-287    H    0.24565989    0.36388983    0.77115972    0.09800000
opls_146-288    H    0.16338004    0.27660000    0.44178009    0.12000000
opls_146-289    H    0.09718004    0.33838004    0.44676042    0.11570000
opls_146-290    H    0.66364991    0.89496007    0.46206019    0.11990000
opls_146-291    H    0.72086987    0.82533013    0.48232986    0.12000000
opls_146-292    H    0.62281996    0.75489982    0.80853009    0.11780000
opls_146-293    H    0.56668983    0.82546987    0.79076042    0.10100000
opls_144-294    H    0.79739002    0.20975009    0.49379051    0.12110000
opls_547-295    H    0.52499002    0.82400000    0.51700000    0.11980000
opls_547-296    H    0.42975009    0.83697006    0.50642014    0.12000000
opls_547-297    H    0.82076007    0.45538004    0.51567014    0.11980000
opls_547-298    H    0.81777006    0.55149982    0.50851968    0.11950000
opls_146-299    H    0.82124991    0.59627985    0.77784028    0.12270000
opls_146-300    H    0.75483993    0.65631017    0.77115972    0.09800000
opls_144-301    H    0.83712015    0.74360000    0.44178009    -0.11950000
opls_146-302    H    0.90332015    0.68181996    0.44676042    0.11570000
opls_146-303    H    0.33684991    0.12523993    0.46206019    0.11980000
opls_146-304    H    0.27962994    0.19486987    0.48232986    0.12010000
opls_146-305    H    0.37767985    0.26529982    0.80853009    0.11780000
opls_146-306    H    0.43380998    0.19473013    0.79076042    0.10100000
opls_144-307    H    0.20311017    0.81044991    0.49379051    0.12110000
opls_547-308    H    0.47551017    0.19620000    0.51700000    0.11980000
opls_547-309    H    0.57075009    0.18322994    0.50642014    0.12000000
opls_547-310    H    0.17974011    0.56481996    0.51567014    0.11980000
opls_547-311    H    0.18273013    0.46870018    0.50851968    0.11950000
Zn2+-312    Zn    0.50000000    0.50000000    0.25000000    0.69940000
Zn2+-313    Zn    0.00000000    0.00000000    0.25000000    0.69940000
Zn2+-314    Zn    0.50024991    0.01009982    0.61773032    0.69940000
Zn2+-315    Zn    0.00024991    0.51009982    0.61773032    0.69930000
