#======================================================================
# Crystal Data Generated By AuToFF
#----------------------------------------------------------------------

data_AuToFF_phase_1

_cell_length_a                         23.1134
_cell_length_b                         23.1134
_cell_length_c                         3.4583
_cell_angle_alpha                      90.00
_cell_angle_beta                       90.00
_cell_angle_gamma                      120.00
_symmetry_space_group_name_H-M_alt     'P 1'
_symmetry_space_group_IT_number        1

loop_
_space_group_symop_operation_xyz
   'x, y, z'

loop_
   _atom_site_label
   _atom_site_type_symbol
   _atom_site_fract_x
   _atom_site_fract_y
   _atom_site_fract_z
   _atom_site_charge
opls_238-0    N    0.13963026    0.54663010    0.00000000    -0.30570000
opls_238-1    N    0.45337013    0.59300018    0.00000000    -0.30570000
opls_238-2    N    0.40700029    0.86037022    0.00000000    -0.30570000
opls_238-3    N    0.86036974    0.45336990    0.00000000    -0.30570000
opls_238-4    N    0.54662987    0.40699982    0.00000000    -0.30570000
opls_238-5    N    0.59299971    0.13962978    0.00000000    -0.30570000
opls_916-6    C    0.06950991    0.52448020    0.00000000    0.20550000
opls_145-7    C    0.04436006    0.56840982    0.00000000    -0.16960000
opls_145-8    C    0.97582972    0.54399981    0.00000000    -0.17980000
opls_142-9    C    0.80765999    0.38471004    0.00000000    0.04810000
opls_145-10    C    0.74088995    0.36239027    0.00000000    -0.11620000
opls_280-11    C    0.71081019    0.40596020    0.00000000    0.31490000
opls_916-12    C    0.47552016    0.54502995    0.00000000    0.20550000
opls_145-13    C    0.43158993    0.47594994    0.00000000    -0.16960000
opls_145-14    C    0.45599996    0.43182998    0.00000000    -0.17980000
opls_142-15    C    0.61529007    0.42294993    0.00000000    0.04810000
opls_145-16    C    0.63760995    0.37850025    0.00000000    -0.11620000
opls_280-17    C    0.59403986    0.30485008    0.00000000    0.31490000
opls_916-18    C    0.45496993    0.93048985    0.00000000    0.20550000
opls_145-19    C    0.52405001    0.95564024    0.00000000    -0.16960000
opls_145-20    C    0.56817032    0.02417021    0.00000000    -0.17980000
opls_142-21    C    0.57704994    0.19234003    0.00000000    0.04810000
opls_145-22    C    0.62149992    0.25910998    0.00000000    -0.11620000
opls_280-23    C    0.69515020    0.28919022    0.00000000    0.31490000
opls_916-24    C    0.93049009    0.47551980    0.00000000    0.20550000
opls_145-25    C    0.95563994    0.43159018    0.00000000    -0.16960000
opls_145-26    C    0.02417028    0.45600019    0.00000000    -0.17980000
opls_142-27    C    0.19234001    0.61528996    0.00000000    0.04810000
opls_145-28    C    0.25911030    0.63761023    0.00000000    -0.11620000
opls_280-29    C    0.28918981    0.59403980    0.00000000    0.31500000
opls_916-30    C    0.52447984    0.45497005    0.00000000    0.20550000
opls_145-31    C    0.56841007    0.52405006    0.00000000    -0.16960000
opls_145-32    C    0.54400004    0.56817002    0.00000000    -0.17980000
opls_142-33    C    0.38470993    0.57705007    0.00000000    0.04810000
opls_145-34    C    0.36239030    0.62150025    0.00000000    -0.11620000
opls_280-35    C    0.40596014    0.69514992    0.00000000    0.31490000
opls_916-36    C    0.54503007    0.06951015    0.00000000    0.20550000
opls_145-37    C    0.47594999    0.04435976    0.00000000    -0.16960000
opls_145-38    C    0.43182993    0.97583029    0.00000000    -0.17960000
opls_142-39    C    0.42295006    0.80765997    0.00000000    0.04810000
opls_145-40    C    0.37850008    0.74089002    0.00000000    -0.11620000
opls_280-41    C    0.30485005    0.71081027    0.00000000    0.31490000
opls_146-42    H    0.07624004    0.62149026    0.00000000    0.08860000
opls_146-43    H    0.95789020    0.57891001    0.00000000    0.10690000
opls_144-44    H    0.82212984    0.34728995    0.00000000    0.10390000
opls_910-45    H    0.15088000    0.50864000    0.00000000    0.26290000
opls_146-46    H    0.37850996    0.45475024    0.00000000    0.08860000
opls_146-47    H    0.42108977    0.37897985    0.00000000    0.10690000
opls_144-48    H    0.65270977    0.47483987    0.00000000    0.10390000
opls_910-49    H    0.49136013    0.64223984    0.00000000    0.26290000
opls_146-50    H    0.54524982    0.92376000    0.00000000    0.08860000
opls_146-51    H    0.62102003    0.04211015    0.00000000    0.10680000
opls_144-52    H    0.52515996    0.17787018    0.00000000    0.10390000
opls_910-53    H    0.35775987    0.84912016    0.00000000    0.26300000
opls_146-54    H    0.92376021    0.37851024    0.00000000    0.08860000
opls_146-55    H    0.04210980    0.42108999    0.00000000    0.10680000
opls_144-56    H    0.17787016    0.65271005    0.00000000    0.10390000
opls_910-57    H    0.84912000    0.49136000    0.00000000    0.26290000
opls_146-58    H    0.62149029    0.54525026    0.00000000    0.08860000
opls_146-59    H    0.57891023    0.62102015    0.00000000    0.10680000
opls_144-60    H    0.34729023    0.52516013    0.00000000    0.10390000
opls_910-61    H    0.50863987    0.35776016    0.00000000    0.26290000
opls_146-62    H    0.45475018    0.07624000    0.00000000    0.08860000
opls_146-63    H    0.37897997    0.95788985    0.00000000    0.10680000
opls_144-64    H    0.47484004    0.82212982    0.00000000    0.10390000
opls_910-65    H    0.64224013    0.15087984    0.00000000    0.26290000
opls_281-66    O    0.74626007    0.46604026    0.00000000    -0.35950000
opls_281-67    O    0.53396002    0.28022026    0.00000000    -0.35950000
opls_281-68    O    0.71978017    0.25373999    0.00000000    -0.35950000
opls_281-69    O    0.25374018    0.53396024    0.00000000    -0.35950000
opls_281-70    O    0.46604023    0.71978024    0.00000000    -0.35950000
opls_281-71    O    0.28021983    0.74626001    0.00000000    -0.35950000
