#======================================================================
# Crystal Data Generated By AuToFF
#----------------------------------------------------------------------

data_AuToFF_phase_1

_cell_length_a                         44.2000
_cell_length_b                         44.2000
_cell_length_c                         3.5900
_cell_angle_alpha                      90.00
_cell_angle_beta                       90.00
_cell_angle_gamma                      120.00
_symmetry_space_group_name_H-M_alt     'P 1'
_symmetry_space_group_IT_number        1

loop_
_space_group_symop_operation_xyz
   'x, y, z'

loop_
   _atom_site_label
   _atom_site_type_symbol
   _atom_site_fract_x
   _atom_site_fract_y
   _atom_site_fract_z
   _atom_site_charge
opls_145-0    C    0.29698998    0.65008992    0.78854039    -0.16880000
opls_700-1    C    0.31312007    0.62955010    0.79164067    0.09290000
opls_700-2    C    0.29293012    0.59241001    0.80708078    0.07960000
opls_145-3    C    0.25785995    0.57407013    0.68115042    -0.12970000
opls_145-4    C    0.23800996    0.53779006    0.70766017    -0.11530000
opls_700-5    C    0.25258000    0.51863013    0.85354875    0.05720000
opls_145-6    C    0.28735015    0.53623017    0.97428134    -0.12960000
opls_145-7    C    0.30708002    0.57247000    0.95486908    -0.12530000
opls_142-8    C    0.23110001    0.48047015    0.88376045    0.07870000
opls_145-9    C    0.22642005    0.42526997    0.07249025    0.15790000
opls_145-10    C    0.19047016    0.40358015    0.00325905    -0.16640000
opls_145-11    C    0.17472992    0.36741006    0.04944011    -0.12810000
opls_700-12    C    0.19408009    0.35189005    0.17415877    0.00120000
opls_716-13    C    0.22973004    0.37428994    0.24869081    0.10580000
opls_716-14    C    0.24517016    0.40958015    0.19827019    0.07220000
opls_700-15    C    0.17716016    0.31336015    0.20745125    0.00610000
opls_716-16    C    0.14234991    0.29286996    0.32767131    0.10600000
opls_716-17    C    0.12555017    0.25735011    0.31684958    0.06930000
opls_145-18    C    0.14176990    0.23940993    0.18623955    0.15040000
opls_145-19    C    0.17717007    0.25887996    0.08225905    -0.17820000
opls_145-20    C    0.19453001    0.29555007    0.08872981    -0.12740000
opls_142-21    C    0.12924000    0.18187005    0.96988022    0.08210000
opls_700-22    C    0.10276003    0.14483002    0.92840947    0.05640000
opls_145-23    C    0.06848008    0.13240994    0.05437047    -0.11540000
opls_145-24    C    0.04361008    0.09726994    0.02152925    -0.11080000
opls_700-25    C    0.05197012    0.07369002    0.85179109    0.06660000
opls_145-26    C    0.08624999    0.08658008    0.71691086    -0.12740000
opls_145-27    C    0.11145993    0.12169996    0.75974095    -0.11500000
opls_700-28    C    0.02529999    0.03589003    0.82467131    0.06570000
opls_145-29    C    0.03542013    0.01048008    0.82138997    -0.16930000
opls_145-30    C    0.34991002    0.64690013    0.78854039    -0.16880000
opls_700-31    C    0.37044992    0.68356997    0.79164067    0.09290000
opls_700-32    C    0.40759011    0.70052003    0.80708078    0.07960000
opls_145-33    C    0.42593004    0.68378994    0.68115042    -0.12970000
opls_145-34    C    0.46221006    0.70022012    0.70766017    -0.11540000
opls_700-35    C    0.48137011    0.73395018    0.85354875    0.05720000
opls_145-36    C    0.46376993    0.75111996    0.97428134    -0.12960000
opls_145-37    C    0.42752993    0.73461009    0.95486908    -0.12530000
opls_142-38    C    0.51952999    0.75063012    0.88376045    0.07870000
opls_145-39    C    0.57473003    0.80115010    0.07249025    0.15790000
opls_145-40    C    0.59642015    0.78689007    0.00325905    -0.16640000
opls_145-41    C    0.63259018    0.80732017    0.04944011    -0.12810000
opls_700-42    C    0.64810995    0.84219004    0.17415877    0.00120000
opls_716-43    C    0.62571010    0.85544010    0.24869081    0.10580000
opls_716-44    C    0.59041987    0.83558996    0.19827019    0.07220000
opls_700-45    C    0.68664014    0.86380019    0.20745125    0.00610000
opls_716-46    C    0.70713008    0.84948007    0.32767131    0.10590000
opls_716-47    C    0.74265003    0.86820007    0.31684958    0.06930000
opls_145-48    C    0.76059002    0.90236013    0.18623955    0.15040000
opls_145-49    C    0.74112013    0.91829004    0.08225905    -0.17830000
opls_145-50    C    0.70445003    0.89898015    0.08872981    -0.12740000
opls_142-51    C    0.81813000    0.94736995    0.96988022    0.08210000
opls_700-52    C    0.85516996    0.95792997    0.92840947    0.05640000
opls_145-53    C    0.86759002    0.93607008    0.05437047    -0.11540000
opls_145-54    C    0.90273002    0.94634012    0.02152925    -0.11080000
opls_700-55    C    0.92630998    0.97828013    0.85179109    0.06660000
opls_145-56    C    0.91342009    0.99967005    0.71691086    -0.12740000
opls_145-57    C    0.87829991    0.98976000    0.75974095    -0.11510000
opls_700-58    C    0.96411007    0.98941019    0.82467131    0.06570000
opls_145-59    C    0.98951998    0.02493997    0.82138997    -0.16930000
opls_145-60    C    0.35310000    0.70300995    0.78854039    -0.16880000
opls_700-61    C    0.31643001    0.68687994    0.79164067    0.09290000
opls_700-62    C    0.29948000    0.70706996    0.80708078    0.07960000
opls_145-63    C    0.31621001    0.74213994    0.68115042    -0.12970000
opls_145-64    C    0.29978011    0.76199008    0.70766017    -0.11540000
opls_700-65    C    0.26605002    0.74741995    0.85354875    0.05720000
opls_145-66    C    0.24888005    0.71265014    0.97428134    -0.12960000
opls_145-67    C    0.26539018    0.69292017    0.95486908    -0.12530000
opls_142-68    C    0.24936991    0.76889999    0.88376045    0.07870000
opls_145-69    C    0.19884992    0.77357993    0.07249025    0.15790000
opls_145-70    C    0.21311004    0.80953004    0.00325905    -0.16640000
opls_145-71    C    0.19268003    0.82527002    0.04944011    -0.12810000
opls_700-72    C    0.15781008    0.80592017    0.17415877    0.00120000
opls_716-73    C    0.14456009    0.77026996    0.24869081    0.10580000
opls_716-74    C    0.16441010    0.75483015    0.19827019    0.07220000
opls_700-75    C    0.13620018    0.82284019    0.20745125    0.00610000
opls_716-76    C    0.15052001    0.85764997    0.32767131    0.10590000
opls_716-77    C    0.13180015    0.87445008    0.31684958    0.06930000
opls_145-78    C    0.09764021    0.85823019    0.18623955    0.15040000
opls_145-79    C    0.08171002    0.82283000    0.08225905    -0.17830000
opls_145-80    C    0.10102009    0.80547004    0.08872981    -0.12740000
opls_142-81    C    0.05263000    0.87076000    0.96988022    0.08210000
opls_700-82    C    0.04207000    0.89724000    0.92840947    0.05640000
opls_145-83    C    0.06392990    0.93151998    0.05437047    -0.11540000
opls_145-84    C    0.05366003    0.95639020    0.02152925    -0.11080000
opls_700-85    C    0.02172003    0.94803011    0.85179109    0.06660000
opls_145-86    C    0.00033004    0.91375013    0.71691086    -0.12740000
opls_145-87    C    0.01023993    0.88854004    0.75974095    -0.11500000
opls_700-88    C    0.01059006    0.97470004    0.82467131    0.06570000
opls_145-89    C    0.97505988    0.96457995    0.82138997    -0.16970000
opls_750-90    N    0.24425006    0.46240013    0.02081058    -0.35040000
opls_750-91    N    0.12091009    0.20246996    0.13998050    -0.29790000
opls_750-92    N    0.25212009    0.36446009    0.37403064    -0.35640000
opls_750-93    N    0.27936991    0.42670995    0.28055989    -0.35660000
opls_750-94    N    0.12173997    0.30497995    0.45130084    -0.35650000
opls_750-95    N    0.09207002    0.24222014    0.42671031    -0.35660000
opls_750-96    N    0.53760019    0.78185014    0.02081058    -0.35040000
opls_750-97    N    0.79752995    0.91843999    0.13998050    -0.29790000
opls_750-98    N    0.63554004    0.88766017    0.37403064    -0.35660000
opls_750-99    N    0.57328992    0.85265994    0.28055989    -0.35650000
opls_750-100    N    0.69502004    0.81675998    0.45130084    -0.35640000
opls_750-101    N    0.75777997    0.84984999    0.42671031    -0.35650000
opls_750-102    N    0.21814988    0.75574999    0.02081058    -0.35040000
opls_750-103    N    0.08155995    0.87909004    0.13998050    -0.29790000
opls_750-104    N    0.11234000    0.74788000    0.37403064    -0.35650000
opls_750-105    N    0.14734017    0.72063011    0.28055989    -0.35660000
opls_750-106    N    0.18323999    0.87826007    0.45130084    -0.35660000
opls_750-107    N    0.15015013    0.90793013    0.42671031    -0.35650000
opls_202-108    S    0.29293011    0.39899008    0.42591086    0.44100000
opls_202-109    S    0.08097006    0.27228990    0.55140947    0.44100000
opls_202-110    S    0.60101003    0.89393996    0.42591086    0.44100000
opls_202-111    S    0.72770989    0.80867995    0.55140947    0.44110000
opls_202-112    S    0.10606009    0.70706996    0.42591086    0.44100000
opls_202-113    S    0.19132005    0.91903015    0.55140947    0.44100000
opls_146-114    H    0.26898003    0.63734014    0.78740111    0.09720000
opls_146-115    H    0.24567004    0.58705999    0.54593036    0.12380000
opls_146-116    H    0.21129010    0.52459016    0.60825905    0.11350000
opls_146-117    H    0.29910002    0.52208012    0.09450975    0.11850000
opls_146-118    H    0.33278009    0.58439999    0.07808914    0.11460000
opls_144-119    H    0.20439004    0.46820994    0.78849025    0.12190000
opls_146-120    H    0.17413004    0.41375013    0.91052089    0.12830000
opls_146-121    H    0.14744996    0.35179992    0.97830919    0.11520000
opls_146-122    H    0.19132992    0.24634989    0.98591922    0.12050000
opls_146-123    H    0.22098015    0.30970011    0.98379944    0.12170000
opls_144-124    H    0.15460995    0.19151990    0.84323120    0.12140000
opls_146-125    H    0.06093992    0.14964998    0.18686072    0.11850000
opls_146-126    H    0.01826004    0.08875990    0.14352925    0.11870000
opls_146-127    H    0.09365015    0.06994011    0.56996100    0.12130000
opls_146-128    H    0.13758998    0.13095010    0.65403900    0.11790000
opls_146-129    H    0.06280997    0.01861994    0.82371031    0.08770000
opls_146-130    H    0.36266007    0.63164005    0.78740111    0.09720000
opls_146-131    H    0.41294014    0.65861015    0.54593036    0.12380000
opls_146-132    H    0.47540992    0.68669994    0.60825905    0.11330000
opls_146-133    H    0.47791995    0.77701999    0.09450975    0.11850000
opls_146-134    H    0.41559997    0.74838002    0.07808914    0.11460000
opls_144-135    H    0.53179008    0.73618017    0.78849025    0.12190000
opls_146-136    H    0.58624997    0.76038003    0.91052089    0.10060000
opls_146-137    H    0.64820017    0.79565012    0.97830919    0.11520000
opls_146-138    H    0.75365000    0.94498008    0.98591922    0.12050000
opls_146-139    H    0.69029999    0.91128007    0.98379944    0.12180000
opls_144-140    H    0.80848010    0.96309007    0.84323120    0.12140000
opls_146-141    H    0.85034997    0.91128999    0.18686072    0.11850000
opls_146-142    H    0.91124007    0.92950004    0.14352925    0.11870000
opls_146-143    H    0.93005999    0.02371003    0.56996100    0.12120000
opls_146-144    H    0.86905012    0.00664005    0.65403900    0.11790000
opls_146-145    H    0.98138008    0.04419003    0.82371031    0.08770000
opls_146-146    H    0.36836003    0.73102007    0.78740111    0.09730000
opls_146-147    H    0.34138995    0.75433013    0.54593036    0.12380000
opls_146-148    H    0.31330010    0.78871016    0.60825905    0.11330000
opls_146-149    H    0.22298016    0.70090014    0.09450975    0.11850000
opls_146-150    H    0.25161995    0.66721998    0.07808914    0.11460000
opls_144-151    H    0.26382001    0.79561015    0.78849025    0.12180000
opls_146-152    H    0.23962012    0.82587010    0.91052089    0.12820000
opls_146-153    H    0.20435009    0.85254996    0.97830919    0.11520000
opls_146-154    H    0.05502008    0.80867003    0.98591922    0.12060000
opls_146-155    H    0.08872000    0.77902008    0.98379944    0.12170000
opls_144-156    H    0.03690995    0.84539003    0.84323120    0.12140000
opls_146-157    H    0.08871010    0.93906002    0.18686072    0.11860000
opls_146-158    H    0.07050012    0.98174006    0.14352925    0.11870000
opls_146-159    H    0.97628999    0.90635012    0.56996100    0.12120000
opls_146-160    H    0.99336003    0.86241011    0.65403900    0.11790000
opls_146-161    H    0.95580995    0.93719003    0.82371031    0.08770000
