#======================================================================
# Crystal Data Generated By AuToFF
#----------------------------------------------------------------------

data_AuToFF_phase_1

_cell_length_a                         6.2565
_cell_length_b                         33.6623
_cell_length_c                         37.2432
_cell_angle_alpha                      63.62
_cell_angle_beta                       87.35
_cell_angle_gamma                      88.48
_symmetry_space_group_name_H-M_alt     'P 1'
_symmetry_space_group_IT_number        1

loop_
_space_group_symop_operation_xyz
   'x, y, z'

loop_
   _atom_site_label
   _atom_site_type_symbol
   _atom_site_fract_x
   _atom_site_fract_y
   _atom_site_fract_z
   _atom_site_charge
opls_716-0    C    0.77376091    0.27941994    0.66967012    -0.07740000
opls_700-1    C    0.69991047    0.31201007    0.62887985    0.03380000
opls_700-2    C    0.77074109    0.29851016    0.59921987    0.03430000
opls_716-3    C    0.87950072    0.25373998    0.61876004    -0.07740000
opls_716-4    C    0.93590981    0.24928009    0.66045011    -0.06420000
opls_700-5    C    0.56573078    0.34856012    0.61918985    0.06200000
opls_700-6    C    0.73223972    0.32421005    0.55883001    0.06020000
opls_212-7    C    0.46536975    0.36852004    0.57785999    0.10120000
opls_141-8    C    0.36310008    0.40639999    0.62373986    -0.01150000
opls_142-9    C    0.48454053    0.36799008    0.64340990    -0.07030000
opls_212-10    C    0.63495994    0.37091994    0.54556988    0.10080000
opls_141-11    C    0.66983006    0.34037001    0.49179003    -0.00340000
opls_142-12    C    0.76675972    0.31258002    0.52721986    -0.07020000
opls_142-13    C    0.25248983    0.42917990    0.64348998    0.07760000
opls_142-14    C    0.66930087    0.33397008    0.45612985    0.04340000
opls_145-15    C    0.75780065    0.29129016    0.42181998    0.22430000
opls_145-16    C    0.56001944    0.29383001    0.40393005    -0.14300000
opls_145-17    C    0.53948019    0.27661004    0.37650009    -0.11840000
opls_916-18    C    0.71549091    0.25739992    0.36529001    0.19630000
opls_145-19    C    0.91518011    0.25646000    0.38138993    -0.11850000
opls_145-20    C    0.93458043    0.27241010    0.40972989    -0.14310000
opls_916-21    C    0.58998981    0.19305020    0.35886990    0.19790000
opls_916-22    C    0.74881994    0.25544000    0.29939998    0.19420000
opls_145-23    C    0.65254955    0.16165989    0.39717011    -0.14290000
opls_145-24    C    0.57173025    0.11893996    0.41456995    -0.14260000
opls_145-25    C    0.42274049    0.10549024    0.39466985    0.22380000
opls_145-26    C    0.35452095    0.13790017    0.35704990    -0.14260000
opls_145-27    C    0.43487083    0.18067000    0.33945991    -0.14290000
opls_145-28    C    0.76494942    0.30190988    0.27710011    -0.14280000
opls_145-29    C    0.81720945    0.32092013    0.23618986    -0.14260000
opls_145-30    C    0.84780005    0.29474009    0.21541996    0.22420000
opls_145-31    C    0.84758929    0.24809013    0.23864003    -0.14280000
opls_145-32    C    0.80206993    0.22889987    0.27963006    -0.14290000
opls_142-33    C    0.80232077    0.29563985    0.15398006    0.07760000
opls_141-34    C    0.82319959    0.31093003    0.11155005    -0.01150000
opls_212-35    C    0.85857927    0.35460008    0.03326010    0.10110000
opls_700-36    C    0.76862921    0.30732007    0.05073012    0.06130000
opls_142-37    C    0.73362971    0.28835003    0.09249008    -0.07030000
opls_135-38    C    0.81026052    0.40532008    0.53777997    -0.38240000
opls_135-39    C    0.27557074    0.33878991    0.58094003    -0.38230000
opls_700-40    C    0.73257004    0.28836994    0.02519994    0.03430000
opls_700-41    C    0.80171979    0.30914011    0.98417993    0.03680000
opls_716-42    C    0.73053065    0.28291006    0.96286984    -0.07740000
opls_716-43    C    0.56788038    0.24953026    0.99316988    -0.06460000
opls_716-44    C    0.62709996    0.24472015    0.03482996    -0.07740000
opls_700-45    C    0.93041122    0.34644997    0.96940992    0.06120000
opls_142-46    C    0.00634007    0.37246005    0.92999006    -0.07020000
opls_141-47    C    0.11745038    0.41021003    0.92424990    -0.00300000
opls_212-48    C    0.02700088    0.35945009    0.99997001    0.10120000
opls_135-49    C    0.67733028    0.38928990    0.01820996    -0.38230000
opls_135-50    C    0.22354027    0.32936997    0.01658011    -0.38240000
opls_142-51    C    0.21792045    0.44116989    0.88715003    0.04350000
opls_145-52    C    0.31524047    0.46169026    0.81918985    0.22470000
opls_145-53    C    0.38890960    0.44299007    0.79351001    -0.14280000
opls_145-54    C    0.48368089    0.46851008    0.75610990    -0.14280000
opls_916-55    C    0.50440034    0.51482996    0.74174991    0.19510000
opls_145-56    C    0.42306020    0.53422006    0.76638988    -0.14260000
opls_145-57    C    0.33228977    0.50825018    0.80425998    -0.14300000
opls_916-58    C    0.74266049    0.52294001    0.68421007    0.18950000
opls_916-59    C    0.53298969    0.58643986    0.68115013    0.19630000
opls_145-60    C    0.72394031    0.53418996    0.64325004    -0.14290000
opls_145-61    C    0.85914061    0.51509002    0.62449990    -0.14260000
opls_145-62    C    0.01837000    0.48381001    0.64557993    0.22390000
opls_145-63    C    0.04318999    0.47468002    0.68618994    -0.14310000
opls_145-64    C    0.90876069    0.49362987    0.70512004    -0.14280000
opls_145-65    C    0.67922060    0.62072004    0.67249011    -0.11850000
opls_145-66    C    0.62171097    0.66464003    0.64886992    -0.14260000
opls_145-67    C    0.41792956    0.67558998    0.63207985    0.22390000
opls_145-68    C    0.27005072    0.64087014    0.64202990    -0.14300000
opls_145-69    C    0.32605995    0.59697983    0.66644012    -0.14280000
opls_142-70    C    0.24936037    0.73078995    0.57736000    0.07760000
opls_141-71    C    0.20150992    0.77576999    0.55073986    -0.00830000
opls_212-72    C    0.15070077    0.86193002    0.51375007    0.10120000
opls_700-73    C    0.07736081    0.83520996    0.49214005    0.06070000
opls_142-74    C    0.08832051    0.78914992    0.51595010    -0.07030000
opls_700-75    C    0.01823979    0.85771993    0.45247004    0.03270000
opls_700-76    C    0.04819959    0.90406011    0.42992992    0.03430000
opls_716-77    C    0.96293970    0.92024006    0.38846000    -0.07740000
opls_716-78    C    0.84153074    0.87983992    0.39018013    -0.06310000
opls_716-79    C    0.92778943    0.83873022    0.42652986    -0.07740000
opls_700-80    C    0.16197062    0.92769004    0.44528000    0.06140000
opls_142-81    C    0.19964957    0.97328005    0.42889005    -0.07010000
opls_141-82    C    0.30898933    0.98684006    0.45324987    -0.00340000
opls_212-83    C    0.28757959    0.90077004    0.48325987    0.10100000
opls_142-84    C    0.37885087    0.03091002    0.44296990    0.04370000
opls_135-85    C    0.95732023    0.87737990    0.53157012    -0.38220000
opls_135-86    C    0.49643040    0.88506012    0.46982998    -0.38230000
opls_202-87    S    0.35189045    0.42343995    0.57160995    0.11410000
opls_202-88    S    0.52241015    0.38432998    0.49517000    0.11430000
opls_202-89    S    0.96739000    0.35849995    0.07826985    0.11420000
opls_202-90    S    0.12563103    0.41757023    0.96843993    0.11520000
opls_202-91    S    0.30319059    0.82040006    0.55748990    0.11510000
opls_202-92    S    0.36240973    0.94277003    0.50077008    0.11410000
opls_750-93    N    0.78458948    0.30283011    0.45280987    -0.25250000
opls_239-94    N    0.68519004    0.23559003    0.34033002    -0.11080000
opls_750-95    N    0.87638949    0.31560989    0.17380007    -0.25500000
opls_750-96    N    0.34341089    0.06309003    0.40754997    -0.25000000
opls_750-97    N    0.22798109    0.43254023    0.85623992    -0.24900000
opls_239-98    N    0.59907968    0.54110987    0.70371005    -0.10880000
opls_750-99    N    0.13301054    0.46420012    0.62467986    -0.25870000
opls_750-100    N    0.37576963    0.72008995    0.60721014    -0.25520000
opls_715-101    H    0.70712960    0.28161995    0.69775004    0.04750000
opls_715-102    H    0.90081088    0.23266016    0.60188989    0.04750000
opls_715-103    H    0.06182032    0.22985996    0.68301003    0.04750000
opls_144-104    H    0.51965968    0.35227016    0.67667990    0.04750000
opls_144-105    H    0.86824959    0.28219996    0.53173988    0.04760000
opls_144-106    H    0.26626084    0.41696993    0.67716999    0.02810000
opls_144-107    H    0.56690012    0.35631994    0.43010988    0.02810000
opls_146-108    H    0.41555056    0.31008992    0.41194011    0.04750000
opls_146-109    H    0.37823054    0.27804006    0.36290013    0.04760000
opls_146-110    H    0.06149010    0.24262001    0.37124013    0.04750000
opls_146-111    H    0.09695026    0.27003994    0.42325996    0.04750000
opls_146-112    H    0.77112972    0.17128993    0.41424991    0.04750000
opls_146-113    H    0.62505065    0.09396007    0.44539997    0.04750000
opls_146-114    H    0.23013086    0.12913986    0.34035011    0.04750000
opls_146-115    H    0.37520949    0.20584996    0.30923005    0.04750000
opls_146-116    H    0.73505953    0.32422015    0.29258995    0.04750000
opls_146-117    H    0.83620009    0.35838007    0.21871985    0.04750000
opls_146-118    H    0.88538011    0.22551011    0.22366008    0.04750000
opls_146-119    H    0.80796008    0.19126001    0.29740991    0.04750000
opls_144-120    H    0.71209066    0.26309998    0.17063996    0.02810000
opls_144-121    H    0.63936037    0.25667010    0.11079001    0.04760000
opls_140-122    H    0.81841957    0.42968999    0.50457986    0.09680000
opls_140-123    H    0.97117089    0.38770010    0.54664995    0.09680000
opls_140-124    H    0.33224025    0.30286014    0.59301001    0.09680000
opls_140-125    H    0.20860956    0.34984021    0.54996993    0.09680000
opls_715-126    H    0.79905024    0.29074019    0.93155992    0.04750000
opls_715-127    H    0.44016017    0.23454022    0.98209988    0.04750000
opls_715-128    H    0.60974979    0.21831994    0.06726014    0.04750000
opls_144-129    H    0.97519039    0.36202999    0.90547007    0.04700000
opls_140-130    H    0.51871027    0.37179986    0.02169010    0.09690000
opls_140-131    H    0.71070951    0.41287005    0.98525009    0.09680000
opls_140-132    H    0.35623924    0.33919006    0.99222988    0.09680000
opls_140-133    H    0.17769012    0.29335016    0.02646987    0.09680000
opls_144-134    H    0.28853986    0.47316003    0.88477995    0.02820000
opls_146-135    H    0.37096080    0.40593015    0.80343006    0.04750000
opls_146-136    H    0.54587041    0.45219003    0.73659013    0.04750000
opls_146-137    H    0.43138056    0.57165000    0.75527998    0.04750000
opls_146-138    H    0.27096061    0.52511014    0.82340003    0.04700000
opls_146-139    H    0.59710981    0.55915011    0.62519994    0.04750000
opls_146-140    H    0.84320015    0.52454995    0.59130998    0.04750000
opls_146-141    H    0.17578954    0.45133008    0.70401988    0.04750000
opls_146-142    H    0.93333982    0.48534997    0.73783996    0.04750000
opls_146-143    H    0.84652997    0.61266000    0.68483993    0.04750000
opls_146-144    H    0.73961062    0.69235012    0.64284003    0.04750000
opls_146-145    H    0.10191986    0.64858998    0.63003010    0.04750000
opls_146-146    H    0.20339991    0.56959006    0.67446008    0.04760000
opls_144-147    H    0.17278008    0.70375007    0.57183010    0.02810000
opls_144-148    H    0.01272055    0.76333990    0.50858009    0.04750000
opls_715-149    H    0.99639065    0.95556994    0.36479992    0.04750000
opls_715-150    H    0.71750013    0.88483993    0.36704014    0.04750000
opls_715-151    H    0.93552050    0.80146991    0.43637013    0.04750000
opls_144-152    H    0.14191972    0.99625991    0.39776998    0.04750000
opls_144-153    H    0.46568961    0.03799997    0.46572987    0.02810000
opls_140-154    H    0.84369975    0.84840997    0.54823001    0.09680000
opls_140-155    H    0.86996034    0.90530020    0.50636987    0.09680000
opls_140-156    H    0.52249976    0.90463999    0.43597001    0.09680000
opls_140-157    H    0.48456986    0.84824011    0.47810999    0.09690000
opls_140-158    H    0.77108009    0.42406012    0.55633995    0.09680000
opls_140-159    H    0.14541057    0.34166995    0.60213014    0.09680000
opls_140-160    H    0.66837940    0.40887982    0.03655009    0.09690000
opls_140-161    H    0.28228937    0.33328012    0.04334991    0.09680000
opls_140-162    H    0.01520987    0.88986003    0.55330011    0.09680000
opls_140-163    H    0.63671053    0.89067008    0.48547999    0.09680000
