#======================================================================
# Crystal Data Generated By AuToFF
#----------------------------------------------------------------------

data_AuToFF_phase_1

_cell_length_a                         34.1585
_cell_length_b                         34.1585
_cell_length_c                         3.5436
_cell_angle_alpha                      90.00
_cell_angle_beta                       90.00
_cell_angle_gamma                      90.00
_symmetry_space_group_name_H-M_alt     'P 1'
_symmetry_space_group_IT_number        1

loop_
_space_group_symop_operation_xyz
   'x, y, z'

loop_
   _atom_site_label
   _atom_site_type_symbol
   _atom_site_fract_x
   _atom_site_fract_y
   _atom_site_fract_z
   _atom_site_charge
opls_716-0    C    0.48088002    0.00000000    0.00000000    -0.12260000
opls_716-1    C    0.51911998    0.00000000    0.00000000    -0.12260000
opls_716-2    C    0.00000000    0.48088002    0.00000000    -0.12260000
opls_716-3    C    0.00000000    0.51911998    0.00000000    -0.12250000
opls_716-4    C    0.40649999    0.97941010    0.00000000    -0.06000000
opls_700-5    C    0.37678996    0.94535006    0.00000000    0.07490000
opls_145-6    C    0.39083010    0.90543993    0.00000000    -0.12940000
opls_145-7    C    0.33591990    0.94841987    0.00000000    -0.18880000
opls_145-8    C    0.31136994    0.91642988    0.00000000    -0.16740000
opls_145-9    C    0.36651990    0.87342009    0.00000000    -0.18830000
opls_700-10    C    0.32680006    0.87899996    0.00000000    0.05340000
opls_142-11    C    0.30175008    0.84553010    0.00000000    0.11710000
opls_145-12    C    0.23633005    0.82074008    0.00000000    0.22020000
opls_145-13    C    0.24711009    0.78118009    0.00000000    -0.19450000
opls_145-14    C    0.19705988    0.83161995    0.00000000    -0.16550000
opls_716-15    C    0.59350001    0.02058990    0.00000000    -0.06000000
opls_700-16    C    0.62321004    0.05464994    0.00000000    0.07490000
opls_145-17    C    0.60918015    0.09456007    0.00000000    -0.12940000
opls_145-18    C    0.66409005    0.05159009    0.00000000    -0.18880000
opls_145-19    C    0.68863006    0.08357012    0.00000000    -0.16750000
opls_145-20    C    0.63348010    0.12657991    0.00000000    -0.18820000
opls_700-21    C    0.67319994    0.12101000    0.00000000    0.05340000
opls_142-22    C    0.69824992    0.15446990    0.00000000    0.11710000
opls_145-23    C    0.76366995    0.17925992    0.00000000    0.22010000
opls_145-24    C    0.75288991    0.21881991    0.00000000    -0.19450000
opls_145-25    C    0.80294012    0.16838005    0.00000000    -0.16560000
opls_716-26    C    0.02058990    0.40649999    0.00000000    -0.06000000
opls_700-27    C    0.05464994    0.37678996    0.00000000    0.07490000
opls_145-28    C    0.09456007    0.39083010    0.00000000    -0.12940000
opls_145-29    C    0.05159009    0.33591990    0.00000000    -0.18880000
opls_145-30    C    0.08357012    0.31136994    0.00000000    -0.16740000
opls_145-31    C    0.12657991    0.36651990    0.00000000    -0.18830000
opls_700-32    C    0.12101000    0.32680006    0.00000000    0.05340000
opls_142-33    C    0.15446990    0.30175008    0.00000000    0.11710000
opls_145-34    C    0.17925992    0.23633005    0.00000000    0.22010000
opls_145-35    C    0.21881991    0.24711009    0.00000000    -0.19450000
opls_145-36    C    0.16838005    0.19705988    0.00000000    -0.16560000
opls_716-37    C    0.97941010    0.59350001    0.00000000    -0.06000000
opls_700-38    C    0.94535006    0.62321004    0.00000000    0.07490000
opls_145-39    C    0.90543993    0.60918015    0.00000000    -0.12940000
opls_145-40    C    0.94841987    0.66409005    0.00000000    -0.18880000
opls_145-41    C    0.91642988    0.68863006    0.00000000    -0.16750000
opls_145-42    C    0.87342009    0.63348010    0.00000000    -0.18830000
opls_700-43    C    0.87899996    0.67319994    0.00000000    0.05340000
opls_142-44    C    0.84553010    0.69824992    0.00000000    0.11710000
opls_145-45    C    0.82074008    0.76366995    0.00000000    0.22010000
opls_145-46    C    0.78118009    0.75288991    0.00000000    -0.19450000
opls_145-47    C    0.83161995    0.80294012    0.00000000    -0.16560000
opls_716-48    C    0.59350001    0.97941010    0.00000000    -0.06000000
opls_700-49    C    0.62321004    0.94535006    0.00000000    0.07490000
opls_145-50    C    0.60918015    0.90543993    0.00000000    -0.12940000
opls_145-51    C    0.66409005    0.94841987    0.00000000    -0.18880000
opls_145-52    C    0.68863006    0.91642988    0.00000000    -0.16750000
opls_145-53    C    0.63348010    0.87342009    0.00000000    -0.18830000
opls_700-54    C    0.67319994    0.87899996    0.00000000    0.05340000
opls_142-55    C    0.69824992    0.84553010    0.00000000    0.11710000
opls_145-56    C    0.76366995    0.82074008    0.00000000    0.22010000
opls_145-57    C    0.75288991    0.78118009    0.00000000    -0.19450000
opls_145-58    C    0.80294012    0.83161995    0.00000000    -0.16560000
opls_716-59    C    0.40649999    0.02058990    0.00000000    -0.06000000
opls_700-60    C    0.37678996    0.05464994    0.00000000    0.07490000
opls_145-61    C    0.39083010    0.09456007    0.00000000    -0.12940000
opls_145-62    C    0.33591990    0.05159009    0.00000000    -0.18880000
opls_145-63    C    0.31136994    0.08357012    0.00000000    -0.16730000
opls_145-64    C    0.36651990    0.12657991    0.00000000    -0.18830000
opls_700-65    C    0.32680006    0.12101000    0.00000000    0.05340000
opls_142-66    C    0.30175008    0.15446990    0.00000000    0.11710000
opls_145-67    C    0.23633005    0.17925992    0.00000000    0.22010000
opls_145-68    C    0.24711009    0.21881991    0.00000000    -0.19450000
opls_145-69    C    0.19705988    0.16838005    0.00000000    -0.16550000
opls_716-70    C    0.97941010    0.40649999    0.00000000    -0.06000000
opls_700-71    C    0.94535006    0.37678996    0.00000000    0.07490000
opls_145-72    C    0.90543993    0.39083010    0.00000000    -0.12940000
opls_145-73    C    0.94841987    0.33591990    0.00000000    -0.18870000
opls_145-74    C    0.91642988    0.31136994    0.00000000    -0.16740000
opls_145-75    C    0.87342009    0.36651990    0.00000000    -0.18830000
opls_700-76    C    0.87899996    0.32680006    0.00000000    0.05350000
opls_142-77    C    0.84553010    0.30175008    0.00000000    0.11710000
opls_145-78    C    0.82074008    0.23633005    0.00000000    0.22010000
opls_145-79    C    0.78118009    0.24711009    0.00000000    -0.19450000
opls_145-80    C    0.83161995    0.19705988    0.00000000    -0.16560000
opls_716-81    C    0.02058990    0.59350001    0.00000000    -0.06000000
opls_700-82    C    0.05464994    0.62321004    0.00000000    0.07490000
opls_145-83    C    0.09456007    0.60918015    0.00000000    -0.12940000
opls_145-84    C    0.05159009    0.66409005    0.00000000    -0.18880000
opls_145-85    C    0.08357012    0.68863006    0.00000000    -0.16750000
opls_145-86    C    0.12657991    0.63348010    0.00000000    -0.18830000
opls_700-87    C    0.12101000    0.67319994    0.00000000    0.05350000
opls_142-88    C    0.15446990    0.69824992    0.00000000    0.11710000
opls_145-89    C    0.17925992    0.76366995    0.00000000    0.22010000
opls_145-90    C    0.21881991    0.75288991    0.00000000    -0.19430000
opls_145-91    C    0.16838005    0.80294012    0.00000000    -0.16560000
opls_633-92    S    0.45475006    0.95735000    0.00000000    0.08390000
opls_633-93    S    0.54525989    0.04265000    0.00000000    0.08380000
opls_633-94    S    0.04265000    0.45475006    0.00000000    0.08400000
opls_633-95    S    0.95735000    0.54525989    0.00000000    0.08380000
opls_633-96    S    0.54525989    0.95735000    0.00000000    0.08380000
opls_633-97    S    0.45475006    0.04265000    0.00000000    0.08390000
opls_633-98    S    0.95735000    0.45475006    0.00000000    0.08390000
opls_633-99    S    0.04265000    0.54525989    0.00000000    0.08380000
opls_750-100    N    0.26442994    0.85083010    0.00000000    -0.29270000
opls_750-101    N    0.73557006    0.14916990    0.00000000    -0.29260000
opls_750-102    N    0.14916990    0.26442994    0.00000000    -0.29270000
opls_750-103    N    0.85083010    0.73557006    0.00000000    -0.29270000
opls_750-104    N    0.73557006    0.85083010    0.00000000    -0.29250000
opls_750-105    N    0.26442994    0.14916990    0.00000000    -0.29270000
opls_750-106    N    0.85083010    0.26442994    0.00000000    -0.29270000
opls_750-107    N    0.14916990    0.73557006    0.00000000    -0.29270000
opls_146-108    H    0.42092012    0.89627004    0.00000000    0.09840000
opls_146-109    H    0.32006001    0.97322014    0.00000000    0.24920000
opls_146-110    H    0.27995989    0.92108992    0.00000000    0.11470000
opls_146-111    H    0.37896014    0.84420013    0.00000000    0.11480000
opls_144-112    H    0.31527994    0.81707013    0.00000000    0.10370000
opls_146-113    H    0.27691995    0.77110002    0.00000000    0.09610000
opls_146-114    H    0.18906012    0.86226005    0.00000000    0.12270000
opls_146-115    H    0.57907988    0.10372996    0.00000000    0.09610000
opls_146-116    H    0.67993999    0.02677986    0.00000000    0.24920000
opls_146-117    H    0.72004011    0.07891008    0.00000000    0.11470000
opls_146-118    H    0.62103986    0.15579987    0.00000000    0.11480000
opls_144-119    H    0.68472006    0.18292987    0.00000000    0.10360000
opls_146-120    H    0.72308005    0.22890993    0.00000000    0.09610000
opls_146-121    H    0.81093988    0.13773995    0.00000000    0.12270000
opls_146-122    H    0.10372996    0.42092012    0.00000000    0.09840000
opls_146-123    H    0.02677986    0.32006001    0.00000000    0.24940000
opls_146-124    H    0.07891008    0.27995989    0.00000000    0.11470000
opls_146-125    H    0.15579987    0.37896014    0.00000000    0.11490000
opls_144-126    H    0.18292987    0.31527994    0.00000000    0.10360000
opls_146-127    H    0.22890993    0.27691995    0.00000000    0.09620000
opls_146-128    H    0.13773995    0.18906012    0.00000000    0.12270000
opls_146-129    H    0.89627004    0.57907988    0.00000000    0.09610000
opls_146-130    H    0.97322014    0.67993999    0.00000000    0.24930000
opls_146-131    H    0.92108992    0.72004011    0.00000000    0.11470000
opls_146-132    H    0.84420013    0.62103986    0.00000000    0.11480000
opls_144-133    H    0.81707013    0.68472006    0.00000000    0.10370000
opls_146-134    H    0.77110002    0.72308005    0.00000000    0.09610000
opls_146-135    H    0.86226005    0.81093988    0.00000000    0.12270000
opls_146-136    H    0.57907988    0.89627004    0.00000000    0.09610000
opls_146-137    H    0.67993999    0.97322014    0.00000000    0.24930000
opls_146-138    H    0.72004011    0.92108992    0.00000000    0.11470000
opls_146-139    H    0.62103986    0.84420013    0.00000000    0.11480000
opls_144-140    H    0.68472006    0.81707013    0.00000000    0.10370000
opls_146-141    H    0.72308005    0.77110002    0.00000000    0.09610000
opls_146-142    H    0.81093988    0.86226005    0.00000000    0.12270000
opls_146-143    H    0.42092012    0.10372996    0.00000000    0.09840000
opls_146-144    H    0.32006001    0.02677986    0.00000000    0.24930000
opls_146-145    H    0.27995989    0.07891008    0.00000000    0.11470000
opls_146-146    H    0.37896014    0.15579987    0.00000000    0.11480000
opls_144-147    H    0.31527994    0.18292987    0.00000000    0.10360000
opls_146-148    H    0.27691995    0.22890993    0.00000000    0.09610000
opls_146-149    H    0.18906012    0.13773995    0.00000000    0.12270000
opls_146-150    H    0.89627004    0.42092012    0.00000000    0.09850000
opls_146-151    H    0.97322014    0.32006001    0.00000000    0.24920000
opls_146-152    H    0.92108992    0.27995989    0.00000000    0.11470000
opls_146-153    H    0.84420013    0.37896014    0.00000000    0.11480000
opls_144-154    H    0.81707013    0.31527994    0.00000000    0.10360000
opls_146-155    H    0.77110002    0.27691995    0.00000000    0.09610000
opls_146-156    H    0.86226005    0.18906012    0.00000000    0.12270000
opls_146-157    H    0.10372996    0.57907988    0.00000000    0.09620000
opls_146-158    H    0.02677986    0.67993999    0.00000000    0.24920000
opls_146-159    H    0.07891008    0.72004011    0.00000000    0.11480000
opls_146-160    H    0.15579987    0.62103986    0.00000000    0.11480000
opls_144-161    H    0.18292987    0.68472006    0.00000000    0.10360000
opls_146-162    H    0.22890993    0.72308005    0.00000000    0.09610000
opls_146-163    H    0.13773995    0.81093988    0.00000000    0.12270000
