#======================================================================
# Crystal Data Generated By AuToFF
#----------------------------------------------------------------------

data_AuToFF_phase_1

_cell_length_a                         35.5600
_cell_length_b                         35.5600
_cell_length_c                         3.5000
_cell_angle_alpha                      90.00
_cell_angle_beta                       90.00
_cell_angle_gamma                      120.00
_symmetry_space_group_name_H-M_alt     'P 1'
_symmetry_space_group_IT_number        1

loop_
_space_group_symop_operation_xyz
   'x, y, z'

loop_
   _atom_site_label
   _atom_site_type_symbol
   _atom_site_fract_x
   _atom_site_fract_y
   _atom_site_fract_z
   _atom_site_charge
opls_140-0    H    0.38851015    0.38200005    0.27248000    0.16650000
opls_140-1    H    0.61799992    0.00650997    0.27248000    0.16650000
opls_140-2    H    0.99348993    0.61148999    0.27248000    0.16660000
opls_140-3    H    0.61148985    0.61799995    0.27248000    0.16650000
opls_140-4    H    0.38200008    0.99349003    0.27248000    0.16650000
opls_140-5    H    0.00651007    0.38851001    0.27248000    0.16650000
opls_140-6    H    0.61148985    0.61799995    0.72752000    0.16650000
opls_140-7    H    0.38200008    0.99349003    0.72752000    0.16650000
opls_140-8    H    0.00651007    0.38851001    0.72752000    0.16650000
opls_140-9    H    0.38851015    0.38200005    0.72752000    0.16650000
opls_140-10    H    0.61799992    0.00650997    0.72752000    0.16660000
opls_140-11    H    0.99348993    0.61148999    0.72752000    0.16650000
opls_526-12    H    0.44325005    0.68589999    0.50000000    0.11590000
opls_146-13    H    0.48412009    0.64750002    0.50000000    0.11800000
opls_146-14    H    0.36319016    0.52500011    0.50000000    0.09370000
opls_526-15    H    0.32313005    0.56140014    0.50000000    0.11600000
opls_146-16    H    0.42099998    0.44899996    0.50000000    0.10630000
opls_144-17    H    0.59459005    0.49850012    0.50000000    0.09910000
opls_140-18    H    0.38372022    0.33460017    0.50000000    0.10810000
opls_526-19    H    0.31410000    0.75735018    0.50000000    0.11580000
opls_146-20    H    0.35250022    0.83662025    0.50000000    0.11800000
opls_146-21    H    0.47499992    0.83818994    0.50000000    0.22670000
opls_526-22    H    0.43860009    0.76172999    0.50000000    0.11600000
opls_146-23    H    0.55100007    0.97200013    0.50000000    0.10630000
opls_144-24    H    0.50149994    0.09608986    0.50000000    0.09910000
opls_140-25    H    0.66539995    0.04911991    0.50000000    0.10810000
opls_526-26    H    0.24265011    0.55675016    0.50000000    0.11580000
opls_146-27    H    0.16338013    0.51588006    0.50000000    0.11800000
opls_146-28    H    0.16180992    0.63680995    0.50000000    0.22670000
opls_526-29    H    0.23827003    0.67687020    0.50000000    0.11600000
opls_146-30    H    0.02799995    0.57899990    0.50000000    0.10630000
opls_144-31    H    0.90391001    0.40541001    0.50000000    0.09910000
opls_140-32    H    0.95087983    0.61627992    0.50000000    0.10810000
opls_526-33    H    0.55674995    0.31410001    0.50000000    0.11580000
opls_146-34    H    0.51587991    0.35249998    0.50000000    0.11800000
opls_146-35    H    0.63681000    0.47500021    0.50000000    0.22670000
opls_526-36    H    0.67687012    0.43860019    0.50000000    0.11600000
opls_146-37    H    0.57900002    0.55100004    0.50000000    0.10630000
opls_144-38    H    0.40541011    0.50150020    0.50000000    0.09910000
opls_140-39    H    0.61627994    0.66540015    0.50000000    0.10810000
opls_526-40    H    0.68590016    0.24265015    0.50000000    0.11580000
opls_146-41    H    0.64749994    0.16338008    0.50000000    0.11800000
opls_146-42    H    0.52500008    0.16181006    0.50000000    0.22670000
opls_526-43    H    0.56139991    0.23827001    0.50000000    0.11600000
opls_146-44    H    0.44899993    0.02799987    0.50000000    0.10630000
opls_144-45    H    0.49850006    0.90391014    0.50000000    0.09910000
opls_140-46    H    0.33460005    0.95088009    0.50000000    0.10810000
opls_526-47    H    0.75735005    0.44325016    0.50000000    0.11580000
opls_146-48    H    0.83661987    0.48411994    0.50000000    0.11800000
opls_146-49    H    0.83819008    0.36319005    0.50000000    0.22670000
opls_526-50    H    0.76173013    0.32313012    0.50000000    0.11600000
opls_146-51    H    0.97200005    0.42100010    0.50000000    0.10630000
opls_144-52    H    0.09608999    0.59458999    0.50000000    0.09910000
opls_140-53    H    0.04912017    0.38372008    0.50000000    0.10810000
opls_531-54    C    0.29050002    0.64360015    0.50000000    0.38370000
opls_700-55    C    0.38061003    0.62590004    0.50000000    0.03280000
opls_523-56    C    0.42592009    0.65070013    0.50000000    -0.19300000
opls_145-57    C    0.44893003    0.62960021    0.50000000    -0.20070000
opls_145-58    C    0.42657999    0.58480003    0.50000000    0.21660000
opls_145-59    C    0.38132989    0.55989993    0.50000000    -0.20070000
opls_523-60    C    0.35828004    0.58070013    0.50000000    -0.19290000
opls_145-61    C    0.45548005    0.47039992    0.50000000    -0.16620000
opls_228-62    C    0.48283009    0.45410000    0.50000000    0.03280000
opls_700-63    C    0.52822990    0.48519996    0.50000000    0.01500000
opls_142-64    C    0.56075014    0.47380005    0.50000000    0.11360000
opls_209-65    C    0.40009000    0.37060014    0.50000000    -0.42680000
opls_531-66    C    0.35639991    0.64689994    0.50000000    0.38370000
opls_700-67    C    0.37410004    0.75471021    0.50000000    0.03270000
opls_523-68    C    0.34930016    0.77522011    0.50000000    -0.19300000
opls_145-69    C    0.37040006    0.81932994    0.50000000    -0.20060000
opls_145-70    C    0.41519991    0.84178003    0.50000000    0.21660000
opls_145-71    C    0.44010009    0.82143022    0.50000000    -0.20060000
opls_523-72    C    0.41930021    0.77758017    0.50000000    -0.19290000
opls_145-73    C    0.52959997    0.98508014    0.50000000    -0.16620000
opls_228-74    C    0.54589995    0.02873016    0.50000000    0.03280000
opls_700-75    C    0.51479994    0.04303013    0.50000000    0.01500000
opls_142-76    C    0.52619997    0.08695000    0.50000000    0.11360000
opls_209-77    C    0.62939995    0.02949000    0.50000000    -0.42690000
opls_531-78    C    0.35310023    0.70950024    0.50000000    0.38370000
opls_700-79    C    0.24529009    0.61939007    0.50000000    0.03280000
opls_523-80    C    0.22477992    0.57408009    0.50000000    -0.19300000
opls_145-81    C    0.18067007    0.55107018    0.50000000    -0.20070000
opls_145-82    C    0.15822009    0.57341993    0.50000000    0.21660000
opls_145-83    C    0.17857018    0.61867017    0.50000000    -0.20060000
opls_523-84    C    0.22241991    0.64172002    0.50000000    -0.19290000
opls_145-85    C    0.01491998    0.54451995    0.50000000    -0.16610000
opls_228-86    C    0.97127012    0.51717017    0.50000000    0.03290000
opls_700-87    C    0.95696988    0.47176991    0.50000000    0.01500000
opls_142-88    C    0.91304989    0.43924995    0.50000000    0.11360000
opls_209-89    C    0.97051021    0.59991018    0.50000000    -0.42680000
opls_531-90    C    0.70950015    0.35640018    0.50000000    0.38370000
opls_700-91    C    0.61938997    0.37409996    0.50000000    0.03280000
opls_523-92    C    0.57408008    0.34930020    0.50000000    -0.19300000
opls_145-93    C    0.55107013    0.37040011    0.50000000    -0.20060000
opls_145-94    C    0.57342001    0.41519997    0.50000000    0.21660000
opls_145-95    C    0.61867011    0.44010007    0.50000000    -0.20070000
opls_523-96    C    0.64172012    0.41930019    0.50000000    -0.19290000
opls_145-97    C    0.54451995    0.52960008    0.50000000    -0.16620000
opls_228-98    C    0.51716991    0.54590000    0.50000000    0.03280000
opls_700-99    C    0.47177010    0.51480004    0.50000000    0.01500000
opls_142-100    C    0.43924986    0.52619995    0.50000000    0.11370000
opls_209-101    C    0.59991016    0.62940019    0.50000000    -0.42690000
opls_531-102    C    0.64360009    0.35310006    0.50000000    0.38370000
opls_700-103    C    0.62590012    0.24529011    0.50000000    0.03280000
opls_523-104    C    0.65069984    0.22477989    0.50000000    -0.19300000
opls_145-105    C    0.62959994    0.18067006    0.50000000    -0.20070000
opls_145-106    C    0.58480009    0.15821997    0.50000000    0.21660000
opls_145-107    C    0.55990007    0.17857011    0.50000000    -0.20060000
opls_523-108    C    0.58069995    0.22242016    0.50000000    -0.19290000
opls_145-109    C    0.47040003    0.01491986    0.50000000    -0.16620000
opls_228-110    C    0.45410021    0.97127016    0.50000000    0.03280000
opls_700-111    C    0.48520022    0.95697019    0.50000000    0.01500000
opls_142-112    C    0.47380003    0.91305000    0.50000000    0.11360000
opls_209-113    C    0.37060005    0.97051000    0.50000000    -0.42690000
opls_531-114    C    0.64689993    0.29050009    0.50000000    0.38370000
opls_700-115    C    0.75470991    0.38060993    0.50000000    0.03270000
opls_523-116    C    0.77522008    0.42591991    0.50000000    -0.19300000
opls_145-117    C    0.81933009    0.44893015    0.50000000    -0.20070000
opls_145-118    C    0.84177991    0.42658007    0.50000000    0.21670000
opls_145-119    C    0.82142998    0.38133015    0.50000000    -0.20070000
opls_523-120    C    0.77758009    0.35827998    0.50000000    -0.19290000
opls_145-121    C    0.98508002    0.45548005    0.50000000    -0.16620000
opls_228-122    C    0.02873004    0.48283016    0.50000000    0.03280000
opls_700-123    C    0.04303012    0.52823009    0.50000000    0.01500000
opls_142-124    C    0.08695011    0.56075005    0.50000000    0.11360000
opls_209-125    C    0.02948995    0.40009014    0.50000000    -0.42680000
opls_520-126    N    0.31332004    0.62350004    0.50000000    -0.39570000
opls_750-127    N    0.45208994    0.56620013    0.50000000    -0.18380000
opls_520-128    N    0.37649999    0.68982000    0.50000000    -0.39570000
opls_750-129    N    0.43379998    0.88589018    0.50000000    -0.18370000
opls_520-130    N    0.31017997    0.68667996    0.50000000    -0.39570000
opls_750-131    N    0.11410996    0.54791001    0.50000000    -0.18380000
opls_520-132    N    0.68667996    0.37649996    0.50000000    -0.39560000
opls_750-133    N    0.54791022    0.43380019    0.50000000    -0.18380000
opls_520-134    N    0.62350001    0.31018000    0.50000000    -0.39570000
opls_750-135    N    0.56620018    0.11411014    0.50000000    -0.18370000
opls_520-136    N    0.68982003    0.31332004    0.50000000    -0.39570000
opls_750-137    N    0.88589004    0.45208999    0.50000000    -0.18380000
opls_222-138    S    0.45940998    0.39410005    0.50000000    -0.03570000
opls_222-139    S    0.60589998    0.06531008    0.50000000    -0.03570000
opls_222-140    S    0.93469020    0.54059020    0.50000000    -0.03570000
opls_222-141    S    0.54059002    0.60589995    0.50000000    -0.03570000
opls_222-142    S    0.39410019    0.93469025    0.50000000    -0.03570000
opls_222-143    S    0.06530996    0.45941013    0.50000000    -0.03570000
