#======================================================================
# Crystal Data Generated By AuToFF
#----------------------------------------------------------------------

data_AuToFF_phase_1

_cell_length_a                         36.9649
_cell_length_b                         36.9649
_cell_length_c                         3.5305
_cell_angle_alpha                      90.00
_cell_angle_beta                       90.00
_cell_angle_gamma                      120.00
_symmetry_space_group_name_H-M_alt     'P 1'
_symmetry_space_group_IT_number        1

loop_
_space_group_symop_operation_xyz
   'x, y, z'

loop_
   _atom_site_label
   _atom_site_type_symbol
   _atom_site_fract_x
   _atom_site_fract_y
   _atom_site_fract_z
   _atom_site_charge
opls_520-0    N    0.69273002    0.31818000    0.50000000    -0.51300000
opls_520-1    N    0.68182014    0.37455010    0.50000000    -0.51300000
opls_520-2    N    0.62544983    0.30726990    0.50000000    -0.51300000
opls_520-3    N    0.30726998    0.68182000    0.50000000    -0.51300000
opls_520-4    N    0.31817986    0.62544990    0.50000000    -0.51300000
opls_520-5    N    0.37455017    0.69273010    0.50000000    -0.51300000
opls_750-6    N    0.54569997    0.08671008    0.50000000    -0.33120000
opls_750-7    N    0.91328996    0.45899013    0.50000000    -0.33120000
opls_750-8    N    0.54100995    0.45430010    0.50000000    -0.33120000
opls_750-9    N    0.45430003    0.91328992    0.50000000    -0.33120000
opls_750-10    N    0.08671019    0.54101018    0.50000000    -0.33120000
opls_750-11    N    0.45899005    0.54569990    0.50000000    -0.33120000
opls_531-12    C    0.65104011    0.29083009    0.50000000    0.30550000
opls_531-13    C    0.70916992    0.36021009    0.50000000    0.30550000
opls_531-14    C    0.63979013    0.34896013    0.50000000    0.30550000
opls_531-15    C    0.34895989    0.70916991    0.50000000    0.30550000
opls_531-16    C    0.29083008    0.63978991    0.50000000    0.30550000
opls_531-17    C    0.36021003    0.65104019    0.50000000    0.30550000
opls_142-18    C    0.58711003    0.11487998    0.50000000    0.09940000
opls_142-19    C    0.88511984    0.47222994    0.50000000    0.09940000
opls_142-20    C    0.52777013    0.41289007    0.50000000    0.09940000
opls_142-21    C    0.41288997    0.88512002    0.50000000    0.09940000
opls_142-22    C    0.11488016    0.52777006    0.50000000    0.09940000
opls_142-23    C    0.47222987    0.58710993    0.50000000    0.09940000
opls_700-24    C    0.60236007    0.15829016    0.50000000    0.04580000
opls_700-25    C    0.84170990    0.44407004    0.50000000    0.04580000
opls_700-26    C    0.55593018    0.39764011    0.50000000    0.04580000
opls_700-27    C    0.39764008    0.84171015    0.50000000    0.04580000
opls_700-28    C    0.15829010    0.55592996    0.50000000    0.04580000
opls_700-29    C    0.44406998    0.60236020    0.50000000    0.04580000
opls_700-30    C    0.63494991    0.24707005    0.50000000    0.00670000
opls_700-31    C    0.75292995    0.38787987    0.50000000    0.00670000
opls_700-32    C    0.61212014    0.36505007    0.50000000    0.00670000
opls_700-33    C    0.36505009    0.75292995    0.50000000    0.00670000
opls_700-34    C    0.24707005    0.61212013    0.50000000    0.00670000
opls_700-35    C    0.38787986    0.63494993    0.50000000    0.00670000
opls_523-36    C    0.66179988    0.22998987    0.50000000    -0.19070000
opls_523-37    C    0.77001019    0.43181016    0.50000000    -0.19070000
opls_523-38    C    0.56818993    0.33819997    0.50000000    -0.19070000
opls_523-39    C    0.33820012    0.77001013    0.50000000    -0.19070000
opls_523-40    C    0.22998997    0.56819015    0.50000000    -0.19070000
opls_523-41    C    0.43181007    0.66180003    0.50000000    -0.19070000
opls_145-42    C    0.64588993    0.18654002    0.50000000    -0.19040000
opls_145-43    C    0.81345988    0.45934999    0.50000000    -0.19040000
opls_145-44    C    0.54064992    0.35410998    0.50000000    -0.19030000
opls_145-45    C    0.35411007    0.81345998    0.50000000    -0.19040000
opls_145-46    C    0.18654012    0.54065001    0.50000000    -0.19040000
opls_145-47    C    0.45935008    0.64589002    0.50000000    -0.19040000
opls_523-48    C    0.59134001    0.21853998    0.50000000    -0.19070000
opls_523-49    C    0.78145999    0.37280016    0.50000000    -0.19060000
opls_523-50    C    0.62720016    0.40866017    0.50000000    -0.19070000
opls_523-51    C    0.40865999    0.78146002    0.50000000    -0.19060000
opls_523-52    C    0.21854017    0.62720015    0.50000000    -0.19070000
opls_523-53    C    0.37280000    0.59134014    0.50000000    -0.19070000
opls_145-54    C    0.57538016    0.17508014    0.50000000    -0.19050000
opls_145-55    C    0.82491999    0.40030001    0.50000000    -0.19050000
opls_145-56    C    0.59970001    0.42462016    0.50000000    -0.19050000
opls_145-57    C    0.42462000    0.82492017    0.50000000    -0.19050000
opls_145-58    C    0.17508001    0.59969999    0.50000000    -0.19050000
opls_145-59    C    0.40030014    0.57538015    0.50000000    -0.19050000
opls_145-60    C    0.52482009    0.04442009    0.50000000    0.19290000
opls_145-61    C    0.95558009    0.48040018    0.50000000    0.19290000
opls_145-62    C    0.51959998    0.47518004    0.50000000    0.19290000
opls_145-63    C    0.47518007    0.95558022    0.50000000    0.19300000
opls_145-64    C    0.04442007    0.51960013    0.50000000    0.19290000
opls_145-65    C    0.48040002    0.52481996    0.50000000    0.19310000
opls_145-66    C    0.54379001    0.01936991    0.50000000    -0.22110000
opls_145-67    C    0.98062997    0.52442012    0.50000000    -0.22110000
opls_145-68    C    0.47558002    0.45620997    0.50000000    -0.22110000
opls_145-69    C    0.45620999    0.98063009    0.50000000    -0.22110000
opls_145-70    C    0.01937003    0.47557988    0.50000000    -0.22110000
opls_145-71    C    0.52441998    0.54379003    0.50000000    -0.22100000
opls_145-72    C    0.48087012    0.02453007    0.50000000    -0.22110000
opls_145-73    C    0.97546997    0.45633992    0.50000000    -0.22110000
opls_145-74    C    0.54365991    0.51913000    0.50000000    -0.22110000
opls_145-75    C    0.51912988    0.97546993    0.50000000    -0.22110000
opls_145-76    C    0.02453003    0.54366008    0.50000000    -0.22100000
opls_145-77    C    0.45634009    0.48087000    0.50000000    -0.22110000
opls_144-78    H    0.60810997    0.10455996    0.50000000    0.10510000
opls_144-79    H    0.89544002    0.50355017    0.50000000    0.10510000
opls_144-80    H    0.49645016    0.39189018    0.50000000    0.10510000
opls_144-81    H    0.39189003    0.89544004    0.50000000    0.10510000
opls_144-82    H    0.10456013    0.49645014    0.50000000    0.10510000
opls_144-83    H    0.50354999    0.60811013    0.50000000    0.10510000
opls_526-84    H    0.69354009    0.24918017    0.50000000    0.21550000
opls_526-85    H    0.75081984    0.44435993    0.50000000    0.21550000
opls_526-86    H    0.55564008    0.30645991    0.50000000    0.21550000
opls_526-87    H    0.30646007    0.75082015    0.50000000    0.21560000
opls_526-88    H    0.24918016    0.55564007    0.50000000    0.21550000
opls_526-89    H    0.44435992    0.69354009    0.50000000    0.21550000
opls_146-90    H    0.66654986    0.17572989    0.50000000    0.21550000
opls_146-91    H    0.82427003    0.49082016    0.50000000    0.21550000
opls_146-92    H    0.50917985    0.33344995    0.50000000    0.21550000
opls_146-93    H    0.33345014    0.82427011    0.50000000    0.21550000
opls_146-94    H    0.17573013    0.50918015    0.50000000    0.21550000
opls_146-95    H    0.49082015    0.66655005    0.50000000    0.21550000
opls_526-96    H    0.57056006    0.22917988    0.50000000    0.21560000
opls_526-97    H    0.77082011    0.34137997    0.50000000    0.21550000
opls_526-98    H    0.65862010    0.42944015    0.50000000    0.21550000
opls_526-99    H    0.42943994    0.77082012    0.50000000    0.21550000
opls_526-100    H    0.22917989    0.65862003    0.50000000    0.21550000
opls_526-101    H    0.34138006    0.57056016    0.50000000    0.21550000
opls_146-102    H    0.54369001    0.15565994    0.50000000    0.21550000
opls_146-103    H    0.84434010    0.38803013    0.50000000    0.21550000
opls_146-104    H    0.61196988    0.45630993    0.50000000    0.21550000
opls_146-105    H    0.45630999    0.84434006    0.50000000    0.21550000
opls_146-106    H    0.15566005    0.61197018    0.50000000    0.21550000
opls_146-107    H    0.38803012    0.54369007    0.50000000    0.21560000
opls_146-108    H    0.57548990    0.03268001    0.50000000    0.21560000
opls_146-109    H    0.96732009    0.54281010    0.50000000    0.21560000
opls_146-110    H    0.45719001    0.42450990    0.50000000    0.21560000
opls_146-111    H    0.42451010    0.96731999    0.50000000    0.21560000
opls_146-112    H    0.03267991    0.45718990    0.50000000    0.21560000
opls_146-113    H    0.54280999    0.57549010    0.50000000    0.21560000
opls_146-114    H    0.46660997    0.04216004    0.50000000    0.21550000
opls_146-115    H    0.95783985    0.42444992    0.50000000    0.21560000
opls_146-116    H    0.57554991    0.53339004    0.50000000    0.21550000
opls_146-117    H    0.53339003    0.95783996    0.50000000    0.21550000
opls_146-118    H    0.04216015    0.57555008    0.50000000    0.21550000
opls_146-119    H    0.42445009    0.46660996    0.50000000    0.21550000
