#======================================================================
# Crystal Data Generated By AuToFF
#----------------------------------------------------------------------

data_AuToFF_phase_1

_cell_length_a                         13.4210
_cell_length_b                         13.4210
_cell_length_c                         8.5280
_cell_angle_alpha                      90.00
_cell_angle_beta                       90.00
_cell_angle_gamma                      90.00
_symmetry_space_group_name_H-M_alt     'P 1'
_symmetry_space_group_IT_number        1

loop_
_space_group_symop_operation_xyz
   'x, y, z'

loop_
   _atom_site_label
   _atom_site_type_symbol
   _atom_site_fract_x
   _atom_site_fract_y
   _atom_site_fract_z
   _atom_site_charge
opls_145-0    C    0.93460025    0.91140004    0.87200047    -0.23690000
opls_145-1    C    0.88809999    0.94769987    0.73520052    -0.14030000
opls_145-2    C    0.83919976    0.88019969    0.63420028    -0.21990000
opls_916-3    C    0.83729975    0.78230013    0.67210014    0.08440000
opls_145-4    C    0.87729975    0.74510022    0.80840056    -0.22320000
opls_145-5    C    0.92639967    0.81190001    0.90420028    -0.15780000
opls_145-6    C    0.06539975    0.08859996    0.87200047    -0.23690000
opls_145-7    C    0.11190001    0.05230013    0.73520052    -0.14030000
opls_145-8    C    0.16080024    0.11980031    0.63420028    -0.21990000
opls_916-9    C    0.16270025    0.21769987    0.67210014    0.08440000
opls_145-10    C    0.12270025    0.25489978    0.80840056    -0.22320000
opls_145-11    C    0.07360033    0.18809999    0.90420028    -0.15780000
opls_145-12    C    0.91140004    0.06539975    0.12799953    -0.23690000
opls_145-13    C    0.94769987    0.11190001    0.26479948    -0.14030000
opls_145-14    C    0.88019969    0.16080024    0.36579972    -0.21990000
opls_916-15    C    0.78230013    0.16270025    0.32789986    0.08440000
opls_145-16    C    0.74510022    0.12270025    0.19159944    -0.22320000
opls_145-17    C    0.81190001    0.07360033    0.09579972    -0.15780000
opls_145-18    C    0.08859996    0.93460025    0.12799953    -0.23690000
opls_145-19    C    0.05230013    0.88809999    0.26479948    -0.14030000
opls_145-20    C    0.11980031    0.83919976    0.36579972    -0.21990000
opls_916-21    C    0.21769987    0.83729975    0.32789986    0.08440000
opls_145-22    C    0.25489978    0.87729975    0.19159944    -0.22320000
opls_145-23    C    0.18809999    0.92639967    0.09579972    -0.15780000
opls_145-24    C    0.43460025    0.58859996    0.87200047    -0.23690000
opls_145-25    C    0.38809999    0.55230013    0.73520052    -0.14030000
opls_145-26    C    0.33919976    0.61980031    0.63420028    -0.21990000
opls_916-27    C    0.33729975    0.71769987    0.67210014    0.08440000
opls_145-28    C    0.37729975    0.75489978    0.80840056    -0.22320000
opls_145-29    C    0.42639967    0.68809999    0.90420028    -0.15780000
opls_145-30    C    0.56539975    0.41140004    0.87200047    -0.23690000
opls_145-31    C    0.61190001    0.44769987    0.73520052    -0.14030000
opls_145-32    C    0.66080024    0.38019969    0.63420028    -0.21990000
opls_916-33    C    0.66270025    0.28230013    0.67210014    0.08440000
opls_145-34    C    0.62270025    0.24510022    0.80840056    -0.22320000
opls_145-35    C    0.57360033    0.31190001    0.90420028    -0.15780000
opls_145-36    C    0.41140004    0.43460025    0.12799953    -0.23690000
opls_145-37    C    0.44769987    0.38809999    0.26479948    -0.14030000
opls_145-38    C    0.38019969    0.33919976    0.36579972    -0.21990000
opls_916-39    C    0.28230013    0.33729975    0.32789986    0.08440000
opls_145-40    C    0.24510022    0.37729975    0.19159944    -0.22320000
opls_145-41    C    0.31190001    0.42639967    0.09579972    -0.15780000
opls_145-42    C    0.58859996    0.56539975    0.12799953    -0.23690000
opls_145-43    C    0.55230013    0.61190001    0.26479948    -0.14030000
opls_145-44    C    0.61980031    0.66080024    0.36579972    -0.21990000
opls_916-45    C    0.71769987    0.66270025    0.32789986    0.08440000
opls_145-46    C    0.75489978    0.62270025    0.19159944    -0.22320000
opls_145-47    C    0.68809999    0.57360033    0.09579972    -0.15780000
opls_146-48    H    0.88959988    0.01679979    0.71130042    0.22120000
opls_146-49    H    0.80809999    0.90320021    0.54090056    0.22120000
opls_146-50    H    0.87149989    0.67660010    0.83530019    0.22120000
opls_146-51    H    0.95619999    0.78740034    0.99759967    0.22120000
opls_146-52    H    0.11040012    0.98320021    0.71130042    0.22120000
opls_146-53    H    0.19190001    0.09679979    0.54090056    0.22120000
opls_146-54    H    0.12850011    0.32339990    0.83530019    0.22120000
opls_146-55    H    0.04380001    0.21259966    0.99759967    0.22120000
opls_146-56    H    0.01679979    0.11040012    0.28869958    0.22120000
opls_146-57    H    0.90320021    0.19190001    0.45909944    0.22120000
opls_146-58    H    0.67660010    0.12850011    0.16469981    0.22120000
opls_146-59    H    0.78740034    0.04380001    0.00240033    0.22120000
opls_146-60    H    0.98320021    0.88959988    0.28869958    0.22120000
opls_146-61    H    0.09679979    0.80809999    0.45909944    0.22120000
opls_146-62    H    0.32339990    0.87149989    0.16469981    0.22120000
opls_146-63    H    0.21259966    0.95619999    0.00240033    0.22130000
opls_146-64    H    0.38959988    0.48320021    0.71130042    0.22120000
opls_146-65    H    0.30809999    0.59679979    0.54090056    0.22120000
opls_146-66    H    0.37149989    0.82339990    0.83530019    0.22120000
opls_146-67    H    0.45619999    0.71259966    0.99759967    0.22120000
opls_146-68    H    0.61040012    0.51679979    0.71130042    0.22120000
opls_146-69    H    0.69190001    0.40320021    0.54090056    0.22120000
opls_146-70    H    0.62850011    0.17660010    0.83530019    0.22120000
opls_146-71    H    0.54380001    0.28740034    0.99759967    0.22120000
opls_146-72    H    0.51679979    0.38959988    0.28869958    0.22120000
opls_146-73    H    0.40320021    0.30809999    0.45909944    0.22120000
opls_146-74    H    0.17660010    0.37149989    0.16469981    0.22120000
opls_146-75    H    0.28740034    0.45619999    0.00240033    0.22120000
opls_146-76    H    0.48320021    0.61040012    0.28869958    0.22120000
opls_146-77    H    0.59679979    0.69190001    0.45909944    0.22120000
opls_146-78    H    0.82339990    0.62850011    0.16469981    0.22120000
opls_146-79    H    0.71259966    0.54380001    0.00240033    0.22130000
opls_239-80    N    0.78130020    0.71180016    0.57770052    0.23550000
opls_239-81    N    0.21869980    0.28819984    0.57770052    0.23550000
opls_239-82    N    0.71180016    0.21869980    0.42229948    0.23550000
opls_239-83    N    0.28819984    0.78130020    0.42229948    0.23550000
opls_239-84    N    0.28130020    0.78819984    0.57770052    0.23550000
opls_239-85    N    0.71869980    0.21180016    0.57770052    0.23550000
opls_239-86    N    0.21180016    0.28130020    0.42229948    0.23550000
opls_239-87    N    0.78819984    0.71869980    0.42229948    0.23550000
opls_272-88    O    0.73259966    0.64619999    0.64289986    -0.37360000
opls_272-89    O    0.26740034    0.35380001    0.64289986    -0.37360000
opls_272-90    O    0.64619999    0.26740034    0.35710014    -0.37360000
opls_272-91    O    0.35380001    0.73259966    0.35710014    -0.37360000
opls_272-92    O    0.23259966    0.85380001    0.64289986    -0.37360000
opls_272-93    O    0.76740034    0.14619999    0.64289986    -0.37360000
opls_272-94    O    0.14619999    0.23259966    0.35710014    -0.37360000
opls_272-95    O    0.85380001    0.76740034    0.35710014    -0.37360000
MOF2_Si3-96    Si    0.00000000    0.00000000    0.00000000    0.58790000
MOF2_Si3-97    Si    0.50000000    0.50000000    0.00000000    0.58790000
