#======================================================================
# Crystal Data Generated By AuToFF
#----------------------------------------------------------------------

data_AuToFF_phase_1

_cell_length_a                         29.7894
_cell_length_b                         29.7894
_cell_length_c                         5.6439
_cell_angle_alpha                      90.00
_cell_angle_beta                       90.00
_cell_angle_gamma                      90.00
_symmetry_space_group_name_H-M_alt     'P 1'
_symmetry_space_group_IT_number        1

loop_
_space_group_symop_operation_xyz
   'x, y, z'

loop_
   _atom_site_label
   _atom_site_type_symbol
   _atom_site_fract_x
   _atom_site_fract_y
   _atom_site_fract_z
   _atom_site_charge
opls_523-0    C    0.81208014    0.00000000    0.78572087    -0.20930000
opls_522-1    C    0.76517016    0.00000000    0.78574922    -0.21620000
opls_523-2    C    0.18791986    0.00000000    0.78572087    -0.20930000
opls_522-3    C    0.23482984    0.00000000    0.78574922    -0.21620000
opls_523-4    C    0.00000000    0.81208014    0.78572087    -0.20930000
opls_522-5    C    0.00000000    0.76517016    0.78574922    -0.21620000
opls_523-6    C    0.00000000    0.18791986    0.78572087    -0.20930000
opls_522-7    C    0.00000000    0.23482984    0.78574922    -0.21620000
opls_523-8    C    0.18791986    0.00000000    0.21427913    -0.20930000
opls_522-9    C    0.23482984    0.00000000    0.21425078    -0.21620000
opls_523-10    C    0.81208014    0.00000000    0.21427913    -0.20930000
opls_522-11    C    0.76517016    0.00000000    0.21425078    -0.21620000
opls_523-12    C    0.00000000    0.81208014    0.21427913    -0.20930000
opls_522-13    C    0.00000000    0.76517016    0.21425078    -0.21620000
opls_523-14    C    0.00000000    0.18791986    0.21427913    -0.20930000
opls_522-15    C    0.00000000    0.23482984    0.21425078    -0.21620000
opls_716-16    C    0.88506986    0.91763010    0.00000000    -0.21570000
opls_543-17    C    0.90749998    0.95833014    0.00000000    0.16390000
opls_234-18    C    0.66922999    0.95831000    0.00000000    0.38390000
opls_700-19    C    0.61963014    0.95881992    0.00000000    -0.06790000
opls_700-20    C    0.04106998    0.52491994    0.00000000    0.02730000
opls_145-21    C    0.08153001    0.45111013    0.00000000    -0.20950000
opls_523-22    C    0.08158003    0.40434013    0.00000000    -0.20900000
opls_716-23    C    0.11493014    0.08236990    0.00000000    -0.21610000
opls_543-24    C    0.09250002    0.04166986    0.00000000    0.16390000
opls_234-25    C    0.33077001    0.04169000    0.00000000    0.38390000
opls_700-26    C    0.38036986    0.04118008    0.00000000    -0.06790000
opls_700-27    C    0.95893002    0.47508006    0.00000000    0.02730000
opls_145-28    C    0.91846999    0.54888987    0.00000000    -0.20950000
opls_523-29    C    0.91841997    0.59565987    0.00000000    -0.20900000
opls_716-30    C    0.08236990    0.88506986    0.00000000    -0.21570000
opls_507-31    C    0.04166986    0.90749998    0.00000000    0.16740000
opls_234-32    C    0.04169000    0.66922999    0.00000000    0.38390000
opls_700-33    C    0.04118008    0.61963014    0.00000000    -0.06790000
opls_700-34    C    0.47508006    0.04106998    0.00000000    0.02730000
opls_145-35    C    0.54888987    0.08153001    0.00000000    -0.20950000
opls_523-36    C    0.59565987    0.08158003    0.00000000    -0.20900000
opls_716-37    C    0.91763010    0.11493014    0.00000000    -0.21570000
opls_507-38    C    0.95833014    0.09250002    0.00000000    0.16740000
opls_234-39    C    0.95831000    0.33077001    0.00000000    0.38390000
opls_700-40    C    0.95881992    0.38036986    0.00000000    -0.06790000
opls_700-41    C    0.52491994    0.95893002    0.00000000    0.02730000
opls_145-42    C    0.45111013    0.91846999    0.00000000    -0.20950000
opls_523-43    C    0.40434013    0.91841997    0.00000000    -0.20900000
opls_716-44    C    0.11493014    0.91763010    0.00000000    -0.21570000
opls_507-45    C    0.09250002    0.95833014    0.00000000    0.16740000
opls_234-46    C    0.33077001    0.95831000    0.00000000    0.38390000
opls_700-47    C    0.38036986    0.95881992    0.00000000    -0.06790000
opls_700-48    C    0.95893002    0.52491994    0.00000000    0.02730000
opls_145-49    C    0.91846999    0.45111013    0.00000000    -0.20950000
opls_523-50    C    0.91841997    0.40434013    0.00000000    -0.20900000
opls_716-51    C    0.88506986    0.08236990    0.00000000    -0.21570000
opls_507-52    C    0.90749998    0.04166986    0.00000000    0.16740000
opls_234-53    C    0.66922999    0.04169000    0.00000000    0.38390000
opls_700-54    C    0.61963014    0.04118008    0.00000000    -0.06790000
opls_700-55    C    0.04106998    0.47508006    0.00000000    0.02730000
opls_145-56    C    0.08153001    0.54888987    0.00000000    -0.20950000
opls_523-57    C    0.08158003    0.59565987    0.00000000    -0.20900000
opls_716-58    C    0.91763010    0.88506986    0.00000000    -0.21570000
opls_543-59    C    0.95833014    0.90749998    0.00000000    0.16390000
opls_234-60    C    0.95831000    0.66922999    0.00000000    0.38400000
opls_700-61    C    0.95881992    0.61963014    0.00000000    -0.06790000
opls_700-62    C    0.52491994    0.04106998    0.00000000    0.02730000
opls_145-63    C    0.45111013    0.08153001    0.00000000    -0.20950000
opls_523-64    C    0.40434013    0.08158003    0.00000000    -0.20900000
opls_716-65    C    0.08236990    0.11493014    0.00000000    -0.21610000
opls_543-66    C    0.04166986    0.09250002    0.00000000    0.16390000
opls_234-67    C    0.04169000    0.33077001    0.00000000    0.38400000
opls_700-68    C    0.04118008    0.38036986    0.00000000    -0.06780000
opls_700-69    C    0.47508006    0.95893002    0.00000000    0.02730000
opls_145-70    C    0.54888987    0.91846999    0.00000000    -0.20950000
opls_523-71    C    0.59565987    0.91841997    0.00000000    -0.20900000
opls_700-72    C    0.88530988    0.00000000    0.00000000    -0.07760000
opls_700-73    C    0.83566000    0.00000000    0.00000000    0.06230000
opls_521-74    C    0.74162991    0.00000000    0.00000000    0.15600000
opls_700-75    C    0.59621006    0.00000000    0.00000000    0.01800000
opls_700-76    C    0.11469012    0.00000000    0.00000000    -0.07760000
opls_700-77    C    0.16434000    0.00000000    0.00000000    0.06230000
opls_521-78    C    0.25837009    0.00000000    0.00000000    0.15600000
opls_700-79    C    0.40378994    0.00000000    0.00000000    0.01800000
opls_700-80    C    0.00000000    0.88530988    0.00000000    -0.07760000
opls_700-81    C    0.00000000    0.83566000    0.00000000    0.06230000
opls_521-82    C    0.00000000    0.74162991    0.00000000    0.15600000
opls_700-83    C    0.00000000    0.59621006    0.00000000    0.01800000
opls_700-84    C    0.00000000    0.11469012    0.00000000    -0.07760000
opls_700-85    C    0.00000000    0.16434000    0.00000000    0.06230000
opls_521-86    C    0.00000000    0.25837009    0.00000000    0.15600000
opls_700-87    C    0.00000000    0.40378994    0.00000000    0.01800000
opls_700-88    C    0.00000000    0.54855989    0.00000000    0.01510000
opls_700-89    C    0.00000000    0.45144011    0.00000000    0.01510000
opls_700-90    C    0.45144011    0.00000000    0.00000000    0.01510000
opls_700-91    C    0.54855989    0.00000000    0.00000000    0.01510000
opls_526-92    H    0.83055986    0.01217984    0.65623948    0.22220000
opls_525-93    H    0.74614997    0.01171994    0.65755063    0.22250000
opls_526-94    H    0.16944014    0.98782016    0.65623948    0.22220000
opls_525-95    H    0.25385003    0.98828006    0.65755063    0.22250000
opls_526-96    H    0.98782990    0.83055986    0.65623062    0.22230000
opls_525-97    H    0.98829013    0.74614997    0.65755063    0.22270000
opls_526-98    H    0.01217010    0.16944014    0.65623062    0.22230000
opls_525-99    H    0.01170987    0.25385003    0.65755063    0.22280000
opls_526-100    H    0.16944014    0.01217010    0.34376938    0.22220000
opls_525-101    H    0.25385003    0.01170987    0.34244937    0.22270000
opls_526-102    H    0.83055986    0.98782990    0.34376938    0.22220000
opls_525-103    H    0.74614997    0.98829013    0.34244937    0.22270000
opls_526-104    H    0.01217984    0.83055986    0.34376052    0.22220000
opls_525-105    H    0.01171994    0.74614997    0.34244937    0.22250000
opls_526-106    H    0.98782016    0.16944014    0.34376052    0.22230000
opls_525-107    H    0.98828006    0.25385003    0.34244937    0.22250000
opls_547-108    H    0.85121016    0.91197003    0.99984939    0.22240000
opls_146-109    H    0.11246987    0.46532995    0.00000000    0.22270000
opls_526-110    H    0.11170013    0.38758015    0.00000000    0.22240000
opls_547-111    H    0.14878010    0.08802997    0.99986003    0.22240000
opls_146-112    H    0.88753013    0.53467005    0.00000000    0.22280000
opls_526-113    H    0.88829987    0.61241985    0.00001063    0.22240000
opls_547-114    H    0.08802997    0.85121016    0.99984939    0.22240000
opls_146-115    H    0.53467005    0.11246987    0.00000000    0.22270000
opls_526-116    H    0.61241985    0.11170013    0.00001063    0.22240000
opls_547-117    H    0.91197003    0.14878984    0.99984939    0.22240000
opls_146-118    H    0.46532995    0.88753013    0.00000000    0.22270000
opls_526-119    H    0.38758015    0.88829987    0.00000000    0.22240000
opls_547-120    H    0.14878984    0.91197003    0.00013997    0.22240000
opls_146-121    H    0.88753013    0.46532995    0.00000000    0.22280000
opls_526-122    H    0.88829987    0.38758015    0.00000000    0.22240000
opls_547-123    H    0.85121016    0.08802997    0.00013997    0.22240000
opls_146-124    H    0.11246987    0.53467005    0.00000000    0.22270000
opls_526-125    H    0.11170013    0.61241985    0.99998937    0.22240000
opls_547-126    H    0.91197003    0.85121016    0.00013997    0.22240000
opls_146-127    H    0.46532995    0.11246987    0.00000000    0.22270000
opls_526-128    H    0.38758015    0.11170013    0.00000000    0.22240000
opls_547-129    H    0.08802997    0.14878010    0.00013997    0.22240000
opls_146-130    H    0.53467005    0.88753013    0.00000000    0.22270000
opls_526-131    H    0.61241985    0.88829987    0.99998937    0.22250000
opls_545-132    H    0.97546006    0.97546006    0.00000000    0.26660000
opls_545-133    H    0.02453994    0.02453994    0.00000000    0.26660000
opls_236-134    O    0.07736007    0.68942006    0.00000000    -0.44170000
opls_236-135    O    0.92263993    0.31057994    0.00000000    -0.44170000
opls_236-136    O    0.31057994    0.07736007    0.00000000    -0.44170000
opls_236-137    O    0.68942006    0.92263993    0.00000000    -0.44170000
opls_236-138    O    0.92263993    0.68942006    0.00000000    -0.44170000
opls_236-139    O    0.07736007    0.31057994    0.00000000    -0.44160000
opls_236-140    O    0.68942006    0.07736007    0.00000000    -0.44170000
opls_236-141    O    0.31057994    0.92263993    0.00000000    -0.44170000
opls_251-142    N    0.69355005    0.00000000    0.00000000    -0.23400000
opls_251-143    N    0.30644995    0.00000000    0.00000000    -0.23400000
opls_251-144    N    0.00000000    0.69355005    0.00000000    -0.23400000
opls_251-145    N    0.00000000    0.30644995    0.00000000    -0.23400000
opls_542-146    N    0.95248008    0.95248008    0.00000000    -0.31020000
opls_542-147    N    0.04751992    0.04751992    0.00000000    -0.31030000
opls_542-148    N    0.04751992    0.95248008    0.00000000    -0.31550000
opls_542-149    N    0.95248008    0.04751992    0.00000000    -0.31550000
