#======================================================================
# Crystal Data Generated By AuToFF
#----------------------------------------------------------------------

data_AuToFF_phase_1

_cell_length_a                         38.4962
_cell_length_b                         42.6997
_cell_length_c                         3.7970
_cell_angle_alpha                      90.00
_cell_angle_beta                       90.00
_cell_angle_gamma                      90.00
_symmetry_space_group_name_H-M_alt     'P 1'
_symmetry_space_group_IT_number        1

loop_
_space_group_symop_operation_xyz
   'x, y, z'

loop_
   _atom_site_label
   _atom_site_type_symbol
   _atom_site_fract_x
   _atom_site_fract_y
   _atom_site_fract_z
   _atom_site_charge
opls_145-0    C    0.51803009    0.44357010    0.06608902    -0.13200000
opls_700-1    C    0.53696001    0.47117006    0.00680011    0.02490000
opls_700-2    C    0.42625999    0.47125999    0.97332894    -0.03190000
opls_700-3    C    0.40378998    0.44269000    0.95761127    0.06800000
opls_145-4    C    0.41370005    0.41572002    0.77015012    -0.11700000
opls_145-5    C    0.39224988    0.38935004    0.76002107    -0.11800000
opls_700-6    C    0.35969005    0.38972990    0.92464051    0.05470000
opls_145-7    C    0.34881988    0.41705000    0.09824072    -0.12290000
opls_145-8    C    0.37063996    0.44314995    0.11534106    -0.13100000
opls_142-9    C    0.33748006    0.36162011    0.90992889    0.01280000
opls_700-10    C    0.72698007    0.72392007    0.07243877    -0.03020000
opls_145-11    C    0.71422998    0.75479992    0.06880959    -0.13000000
opls_145-12    C    0.73675999    0.78043991    0.06495918    -0.12290000
opls_234-13    C    0.70193006    0.69715010    0.07693969    0.45170000
opls_145-14    C    0.01803009    0.94357010    0.06608902    -0.13200000
opls_700-15    C    0.03696001    0.97117006    0.00680011    0.02490000
opls_700-16    C    0.92625999    0.97125999    0.97332894    -0.03190000
opls_700-17    C    0.90378998    0.94269000    0.95761127    0.06800000
opls_145-18    C    0.91370005    0.91572002    0.77015012    -0.11700000
opls_145-19    C    0.89224988    0.88935004    0.76002107    -0.11800000
opls_700-20    C    0.85969005    0.88972990    0.92464051    0.05470000
opls_145-21    C    0.84881988    0.91705000    0.09824072    -0.12290000
opls_145-22    C    0.87063996    0.94314995    0.11534106    -0.13100000
opls_142-23    C    0.83748006    0.86162011    0.90992889    0.01280000
opls_700-24    C    0.22698007    0.22392007    0.07243877    -0.03020000
opls_145-25    C    0.21422998    0.25479992    0.06880959    -0.13000000
opls_145-26    C    0.23675999    0.28043991    0.06495918    -0.12290000
opls_234-27    C    0.20193006    0.19715010    0.07693969    0.45170000
opls_145-28    C    0.48196991    0.55642990    0.06608902    -0.13200000
opls_700-29    C    0.46303999    0.52882994    0.00680011    0.02490000
opls_700-30    C    0.57374001    0.52874001    0.97332894    -0.03190000
opls_700-31    C    0.59621002    0.55731000    0.95761127    0.06800000
opls_145-32    C    0.58629995    0.58427998    0.77015012    -0.11700000
opls_145-33    C    0.60775012    0.61064996    0.76002107    -0.11800000
opls_700-34    C    0.64030995    0.61027010    0.92464051    0.05470000
opls_145-35    C    0.65118012    0.58295000    0.09824072    -0.12290000
opls_145-36    C    0.62936004    0.55685005    0.11534106    -0.13100000
opls_142-37    C    0.66251994    0.63837989    0.90992889    0.01280000
opls_700-38    C    0.27301993    0.27607993    0.07243877    -0.03020000
opls_145-39    C    0.28577002    0.24520008    0.06880959    -0.13000000
opls_145-40    C    0.26324001    0.21956009    0.06495918    -0.12290000
opls_234-41    C    0.29806994    0.30284990    0.07693969    0.45170000
opls_145-42    C    0.98196991    0.05642990    0.06608902    -0.13200000
opls_700-43    C    0.96303999    0.02882994    0.00680011    0.02490000
opls_700-44    C    0.07374001    0.02874001    0.97332894    -0.03190000
opls_700-45    C    0.09621002    0.05731000    0.95761127    0.06800000
opls_145-46    C    0.08629995    0.08427998    0.77015012    -0.11700000
opls_145-47    C    0.10775012    0.11064996    0.76002107    -0.11800000
opls_700-48    C    0.14030995    0.11027010    0.92464051    0.05470000
opls_145-49    C    0.15118012    0.08295000    0.09824072    -0.12290000
opls_145-50    C    0.12936004    0.05685005    0.11534106    -0.13100000
opls_142-51    C    0.16251994    0.13837989    0.90992889    0.01280000
opls_700-52    C    0.77301993    0.77607993    0.07243877    -0.03020000
opls_145-53    C    0.78577002    0.74520008    0.06880959    -0.13000000
opls_145-54    C    0.76324001    0.71956009    0.06495918    -0.12290000
opls_234-55    C    0.79806994    0.80284990    0.07693969    0.45170000
opls_145-56    C    0.51803009    0.55642990    0.06608902    -0.13200000
opls_700-57    C    0.53696001    0.52882994    0.00680011    0.02490000
opls_700-58    C    0.42625999    0.52874001    0.97332894    -0.03190000
opls_700-59    C    0.40378998    0.55731000    0.95761127    0.06800000
opls_145-60    C    0.41370005    0.58427998    0.77015012    -0.11700000
opls_145-61    C    0.39224988    0.61064996    0.76002107    -0.11800000
opls_700-62    C    0.35969005    0.61027010    0.92464051    0.05470000
opls_145-63    C    0.34881988    0.58295000    0.09824072    -0.12290000
opls_145-64    C    0.37063996    0.55685005    0.11534106    -0.13100000
opls_142-65    C    0.33748006    0.63837989    0.90992889    0.01280000
opls_700-66    C    0.72698007    0.27607993    0.07243877    -0.03020000
opls_145-67    C    0.71422998    0.24520008    0.06880959    -0.13000000
opls_145-68    C    0.73675999    0.21956009    0.06495918    -0.12290000
opls_234-69    C    0.70193006    0.30284990    0.07693969    0.45170000
opls_145-70    C    0.01803009    0.05642990    0.06608902    -0.13200000
opls_700-71    C    0.03696001    0.02882994    0.00680011    0.02490000
opls_700-72    C    0.92625999    0.02874001    0.97332894    -0.03190000
opls_700-73    C    0.90378998    0.05731000    0.95761127    0.06800000
opls_145-74    C    0.91370005    0.08427998    0.77015012    -0.11700000
opls_145-75    C    0.89224988    0.11064996    0.76002107    -0.11800000
opls_700-76    C    0.85969005    0.11027010    0.92464051    0.05470000
opls_145-77    C    0.84881988    0.08295000    0.09824072    -0.12290000
opls_145-78    C    0.87063996    0.05685005    0.11534106    -0.13100000
opls_142-79    C    0.83748006    0.13837989    0.90992889    0.01280000
opls_700-80    C    0.22698007    0.77607993    0.07243877    -0.03020000
opls_145-81    C    0.21422998    0.74520008    0.06880959    -0.13000000
opls_145-82    C    0.23675999    0.71956009    0.06495918    -0.12290000
opls_234-83    C    0.20193006    0.80284990    0.07693969    0.45170000
opls_145-84    C    0.48196991    0.44357010    0.06608902    -0.13200000
opls_700-85    C    0.46303999    0.47117006    0.00680011    0.02490000
opls_700-86    C    0.57374001    0.47125999    0.97332894    -0.03190000
opls_700-87    C    0.59621002    0.44269000    0.95761127    0.06800000
opls_145-88    C    0.58629995    0.41572002    0.77015012    -0.11700000
opls_145-89    C    0.60775012    0.38935004    0.76002107    -0.11800000
opls_700-90    C    0.64030995    0.38972990    0.92464051    0.05470000
opls_145-91    C    0.65118012    0.41705000    0.09824072    -0.12290000
opls_145-92    C    0.62936004    0.44314995    0.11534106    -0.13100000
opls_142-93    C    0.66251994    0.36162011    0.90992889    0.01280000
opls_700-94    C    0.27301993    0.72392007    0.07243877    -0.03020000
opls_145-95    C    0.28577002    0.75479992    0.06880959    -0.13000000
opls_145-96    C    0.26324001    0.78043991    0.06495918    -0.12290000
opls_234-97    C    0.29806994    0.69715010    0.07693969    0.45170000
opls_145-98    C    0.98196991    0.94357010    0.06608902    -0.13200000
opls_700-99    C    0.96303999    0.97117006    0.00680011    0.02490000
opls_700-100    C    0.07374001    0.97125999    0.97332894    -0.03190000
opls_700-101    C    0.09621002    0.94269000    0.95761127    0.06800000
opls_145-102    C    0.08629995    0.91572002    0.77015012    -0.11700000
opls_145-103    C    0.10775012    0.88935004    0.76002107    -0.11800000
opls_700-104    C    0.14030995    0.88972990    0.92464051    0.05470000
opls_145-105    C    0.15118012    0.91705000    0.09824072    -0.12290000
opls_145-106    C    0.12936004    0.94314995    0.11534106    -0.13100000
opls_142-107    C    0.16251994    0.86162011    0.90992889    0.01280000
opls_700-108    C    0.77301993    0.22392007    0.07243877    -0.03020000
opls_145-109    C    0.78577002    0.25479992    0.06880959    -0.13000000
opls_145-110    C    0.76324001    0.28043991    0.06495918    -0.12290000
opls_234-111    C    0.79806994    0.19715010    0.07693969    0.45170000
opls_700-112    C    0.48147999    0.50000000    0.00126942    0.00800000
opls_261-113    C    0.40923000    0.50000000    0.95322886    -0.12580000
opls_700-114    C    0.98147999    0.00000000    0.00126942    0.00800000
opls_261-115    C    0.90923000    0.00000000    0.95322886    -0.12580000
opls_700-116    C    0.51852001    0.50000000    0.00126942    0.00800000
opls_261-117    C    0.59077000    0.50000000    0.95322886    -0.12580000
opls_700-118    C    0.01852001    0.00000000    0.00126942    0.00800000
opls_261-119    C    0.09077000    0.00000000    0.95322886    -0.12580000
opls_750-120    N    0.69038009    0.64040989    0.10205952    -0.18370000
opls_238-121    N    0.21277009    0.16654005    0.11289966    -0.20970000
opls_750-122    N    0.19038009    0.14040989    0.10205952    -0.18370000
opls_238-123    N    0.71277009    0.66654005    0.11289966    -0.20970000
opls_750-124    N    0.30961991    0.35959011    0.10205952    -0.18370000
opls_238-125    N    0.78722991    0.83345995    0.11289966    -0.20970000
opls_750-126    N    0.80961991    0.85959011    0.10205952    -0.18370000
opls_238-127    N    0.28722991    0.33345995    0.11289966    -0.20970000
opls_750-128    N    0.69038009    0.35959011    0.10205952    -0.18370000
opls_238-129    N    0.21277009    0.83345995    0.11289966    -0.20970000
opls_750-130    N    0.19038009    0.85959011    0.10205952    -0.18370000
opls_238-131    N    0.71277009    0.33345995    0.11289966    -0.20970000
opls_750-132    N    0.30961991    0.64040989    0.10205952    -0.18370000
opls_238-133    N    0.78722991    0.16654005    0.11289966    -0.20970000
opls_750-134    N    0.80961991    0.14040989    0.10205952    -0.18370000
opls_238-135    N    0.28722991    0.66654005    0.11289966    -0.20970000
opls_236-136    O    0.17093999    0.20291993    0.05824072    -0.39540000
opls_236-137    O    0.67093999    0.70291993    0.05824072    -0.39540000
opls_236-138    O    0.82906001    0.79708007    0.05824072    -0.39540000
opls_236-139    O    0.32906001    0.29708007    0.05824072    -0.39540000
opls_236-140    O    0.17093999    0.79708007    0.05824072    -0.39540000
opls_236-141    O    0.67093999    0.29708007    0.05824072    -0.39540000
opls_236-142    O    0.82906001    0.20291993    0.05824072    -0.39540000
opls_236-143    O    0.32906001    0.70291993    0.05824072    -0.39540000
opls_146-144    H    0.53057990    0.42153996    0.11938109    0.12710000
opls_146-145    H    0.43776996    0.41503992    0.62524098    0.11020000
opls_146-146    H    0.40084995    0.36878994    0.61737951    0.11370000
opls_146-147    H    0.32368000    0.41816008    0.22539110    0.11760000
opls_146-148    H    0.36174999    0.46358991    0.25821965    0.11270000
opls_144-149    H    0.34470000    0.34289000    0.73263893    0.09320000
opls_146-150    H    0.68655010    0.75932009    0.06721886    0.11580000
opls_146-151    H    0.72515989    0.80340002    0.05289966    0.11360000
opls_910-152    H    0.23817000    0.16179997    0.18968923    0.26760000
opls_146-153    H    0.03057990    0.92153996    0.11938109    0.12710000
opls_146-154    H    0.93776996    0.91503992    0.62524098    0.11020000
opls_146-155    H    0.90084995    0.86878994    0.61737951    0.11370000
opls_146-156    H    0.82368000    0.91816008    0.22539110    0.11760000
opls_146-157    H    0.86174999    0.96358991    0.25821965    0.11270000
opls_144-158    H    0.84470000    0.84289000    0.73263893    0.09320000
opls_146-159    H    0.18655010    0.25932009    0.06721886    0.11580000
opls_146-160    H    0.22515989    0.30340002    0.05289966    0.11360000
opls_910-161    H    0.73817000    0.66179997    0.18968923    0.26760000
opls_146-162    H    0.46942010    0.57846004    0.11938109    0.12710000
opls_146-163    H    0.56223004    0.58496008    0.62524098    0.11020000
opls_146-164    H    0.59915005    0.63121006    0.61737951    0.11370000
opls_146-165    H    0.67632000    0.58183992    0.22539110    0.11760000
opls_146-166    H    0.63825001    0.53641009    0.25821965    0.11270000
opls_144-167    H    0.65530000    0.65711000    0.73263893    0.09320000
opls_146-168    H    0.31344990    0.24067991    0.06721886    0.11580000
opls_146-169    H    0.27484011    0.19659998    0.05289966    0.11360000
opls_910-170    H    0.76183000    0.83820003    0.18968923    0.26760000
opls_146-171    H    0.96942010    0.07846004    0.11938109    0.12710000
opls_146-172    H    0.06223004    0.08496008    0.62524098    0.11020000
opls_146-173    H    0.09915005    0.13121006    0.61737951    0.11370000
opls_146-174    H    0.17632000    0.08183992    0.22539110    0.11760000
opls_146-175    H    0.13825001    0.03641009    0.25821965    0.11270000
opls_144-176    H    0.15530000    0.15711000    0.73263893    0.09320000
opls_146-177    H    0.81344990    0.74067991    0.06721886    0.11580000
opls_146-178    H    0.77484011    0.69659998    0.05289966    0.11360000
opls_910-179    H    0.26183000    0.33820003    0.18968923    0.26760000
opls_146-180    H    0.53057990    0.57846004    0.11938109    0.12710000
opls_146-181    H    0.43776996    0.58496008    0.62524098    0.11020000
opls_146-182    H    0.40084995    0.63121006    0.61737951    0.11370000
opls_146-183    H    0.32368000    0.58183992    0.22539110    0.11760000
opls_146-184    H    0.36174999    0.53641009    0.25821965    0.11270000
opls_144-185    H    0.34470000    0.65711000    0.73263893    0.09320000
opls_146-186    H    0.68655010    0.24067991    0.06721886    0.11580000
opls_146-187    H    0.72515989    0.19659998    0.05289966    0.11360000
opls_910-188    H    0.23817000    0.83820003    0.18968923    0.26760000
opls_146-189    H    0.03057990    0.07846004    0.11938109    0.12710000
opls_146-190    H    0.93776996    0.08496008    0.62524098    0.11020000
opls_146-191    H    0.90084995    0.13121006    0.61737951    0.11370000
opls_146-192    H    0.82368000    0.08183992    0.22539110    0.11760000
opls_146-193    H    0.86174999    0.03641009    0.25821965    0.11270000
opls_144-194    H    0.84470000    0.15711000    0.73263893    0.09320000
opls_146-195    H    0.18655010    0.74067991    0.06721886    0.11580000
opls_146-196    H    0.22515989    0.69659998    0.05289966    0.11360000
opls_910-197    H    0.73817000    0.33820003    0.18968923    0.26760000
opls_146-198    H    0.46942010    0.42153996    0.11938109    0.12710000
opls_146-199    H    0.56223004    0.41503992    0.62524098    0.11020000
opls_146-200    H    0.59915005    0.36878994    0.61737951    0.11370000
opls_146-201    H    0.67632000    0.41816008    0.22539110    0.11760000
opls_146-202    H    0.63825001    0.46358991    0.25821965    0.11270000
opls_144-203    H    0.65530000    0.34289000    0.73263893    0.09320000
opls_146-204    H    0.31344990    0.75932009    0.06721886    0.11580000
opls_146-205    H    0.27484011    0.80340002    0.05289966    0.11360000
opls_910-206    H    0.76183000    0.16179997    0.18968923    0.26760000
opls_146-207    H    0.96942010    0.92153996    0.11938109    0.12710000
opls_146-208    H    0.06223004    0.91503992    0.62524098    0.11020000
opls_146-209    H    0.09915005    0.86878994    0.61737951    0.11370000
opls_146-210    H    0.17632000    0.91816008    0.22539110    0.11760000
opls_146-211    H    0.13825001    0.96358991    0.25821965    0.11270000
opls_144-212    H    0.15530000    0.84289000    0.73263893    0.09320000
opls_146-213    H    0.81344990    0.25932009    0.06721886    0.11580000
opls_146-214    H    0.77484011    0.30340002    0.05289966    0.11360000
opls_910-215    H    0.26183000    0.66179997    0.18968923    0.26760000
