#======================================================================
# Crystal Data Generated By AuToFF
#----------------------------------------------------------------------

data_AuToFF_phase_1

_cell_length_a                         37.6180
_cell_length_b                         37.6180
_cell_length_c                         7.1654
_cell_angle_alpha                      90.00
_cell_angle_beta                       90.00
_cell_angle_gamma                      120.00
_symmetry_space_group_name_H-M_alt     'P 1'
_symmetry_space_group_IT_number        1

loop_
_space_group_symop_operation_xyz
   'x, y, z'

loop_
   _atom_site_label
   _atom_site_type_symbol
   _atom_site_fract_x
   _atom_site_fract_y
   _atom_site_fract_z
   _atom_site_charge
opls_750-0    N    0.78945000    0.55368017    0.25000000    -0.30730000
opls_750-1    N    0.87696007    0.77967005    0.25000000    -0.30920000
opls_750-2    N    0.44632009    0.23577006    0.25000000    -0.30730000
opls_750-3    N    0.22033014    0.09729008    0.25000000    -0.30930000
opls_750-4    N    0.76423006    0.21055008    0.25000000    -0.30730000
opls_750-5    N    0.90271006    0.12303987    0.25000000    -0.30930000
opls_750-6    N    0.21055015    0.44632014    0.75000000    -0.30720000
opls_750-7    N    0.12303993    0.22032995    0.75000000    -0.30920000
opls_750-8    N    0.55367991    0.76422994    0.75000000    -0.30730000
opls_750-9    N    0.77967001    0.90271022    0.75000000    -0.30930000
opls_750-10    N    0.23577009    0.78945023    0.75000000    -0.30720000
opls_750-11    N    0.09728994    0.87696013    0.75000000    -0.30930000
opls_145-12    C    0.76346002    0.51074002    0.25000000    0.18390000
opls_145-13    C    0.71987009    0.49036010    0.25000000    -0.14140000
opls_145-14    C    0.69672998    0.44746017    0.25000000    -0.13950000
opls_700-15    C    0.71553992    0.42276999    0.25000000    0.05960000
opls_145-16    C    0.75912006    0.44347007    0.25000000    -0.09800000
opls_145-17    C    0.78255006    0.48635005    0.25000000    -0.14140000
opls_145-18    C    0.70968014    0.35285010    0.25000000    -0.10260000
opls_700-19    C    0.69059019    0.37713019    0.25000000    0.06580000
opls_142-20    C    0.80365008    0.22472001    0.25000000    0.08010000
opls_700-21    C    0.81951996    0.19602009    0.25000000    0.00690000
opls_145-22    C    0.79121012    0.15314011    0.25000000    -0.15270000
opls_729-23    C    0.80490991    0.12474991    0.25000000    0.07080000
opls_145-24    C    0.90301013    0.82261019    0.25000000    0.18430000
opls_145-25    C    0.94660003    0.84294008    0.25000000    -0.14180000
opls_145-26    C    0.96979014    0.88585014    0.25000000    -0.13960000
opls_700-27    C    0.95103018    0.91058022    0.25000000    0.05960000
opls_145-28    C    0.90744993    0.88994000    0.25000000    -0.09800000
opls_145-29    C    0.88398020    0.84705020    0.25000000    -0.14140000
opls_145-30    C    0.95699007    0.98053020    0.25000000    -0.10260000
opls_700-31    C    0.97604001    0.95623016    0.25000000    0.06570000
opls_142-32    C    0.86328993    0.10890002    0.25000000    0.08010000
opls_700-33    C    0.84743986    0.13761989    0.25000000    0.00680000
opls_145-34    C    0.87574996    0.18049987    0.25000000    -0.15270000
opls_729-35    C    0.86204007    0.20889007    0.25000000    0.07080000
opls_145-36    C    0.48925998    0.25272008    0.25000000    0.18390000
opls_145-37    C    0.50963991    0.22951003    0.25000000    -0.14140000
opls_145-38    C    0.55253995    0.24926991    0.25000000    -0.13960000
opls_700-39    C    0.57723004    0.29276994    0.25000000    0.05960000
opls_145-40    C    0.55652988    0.31565000    0.25000000    -0.09800000
opls_145-41    C    0.51365008    0.29620015    0.25000000    -0.14140000
opls_145-42    C    0.64714995    0.35683007    0.25000000    -0.10260000
opls_700-43    C    0.62286982    0.31345988    0.25000000    0.06580000
opls_142-44    C    0.77528000    0.57892992    0.25000000    0.08010000
opls_700-45    C    0.80398004    0.62349999    0.25000000    0.00690000
opls_145-46    C    0.84686007    0.63807019    0.25000000    -0.15270000
opls_729-47    C    0.87525017    0.68016007    0.25000000    0.07080000
opls_145-48    C    0.17738987    0.08039992    0.25000000    0.18430000
opls_145-49    C    0.15705994    0.10366000    0.25000000    -0.14180000
opls_145-50    C    0.11415009    0.08394003    0.25000000    -0.13960000
opls_700-51    C    0.08942013    0.04045013    0.25000000    0.05960000
opls_145-52    C    0.11005991    0.01750990    0.25000000    -0.09800000
opls_145-53    C    0.15295008    0.03692998    0.25000000    -0.14140000
opls_145-54    C    0.01947009    0.97645998    0.25000000    -0.10260000
opls_700-55    C    0.04376986    0.01980991    0.25000000    0.06570000
opls_142-56    C    0.89110015    0.75439021    0.25000000    0.08010000
opls_700-57    C    0.86238017    0.70982014    0.25000000    0.00680000
opls_145-58    C    0.81949987    0.69524994    0.25000000    -0.15270000
opls_729-59    C    0.79111003    0.65314993    0.25000000    0.07080000
opls_145-60    C    0.74728000    0.23653990    0.25000000    0.18390000
opls_145-61    C    0.77049015    0.28013017    0.25000000    -0.14140000
opls_145-62    C    0.75073008    0.30326992    0.25000000    -0.13960000
opls_700-63    C    0.70723004    0.28446007    0.25000000    0.05960000
opls_145-64    C    0.68435006    0.24087993    0.25000000    -0.09800000
opls_145-65    C    0.70380002    0.21745011    0.25000000    -0.14140000
opls_145-66    C    0.64317006    0.29032013    0.25000000    -0.10260000
opls_700-67    C    0.68653999    0.30940993    0.25000000    0.06580000
opls_142-68    C    0.42106992    0.19635007    0.25000000    0.08010000
opls_700-69    C    0.37649999    0.18047992    0.25000000    0.00690000
opls_145-70    C    0.36192996    0.20879000    0.25000000    -0.15270000
opls_729-71    C    0.31983992    0.19509002    0.25000000    0.07080000
opls_145-72    C    0.91960000    0.09698988    0.25000000    0.18430000
opls_145-73    C    0.89634002    0.05339992    0.25000000    -0.14180000
opls_145-74    C    0.91606020    0.03021013    0.25000000    -0.13960000
opls_700-75    C    0.95955011    0.04896995    0.25000000    0.05960000
opls_145-76    C    0.98249016    0.09255010    0.25000000    -0.09800000
opls_145-77    C    0.96307014    0.11602013    0.25000000    -0.14140000
opls_145-78    C    0.02353999    0.04301013    0.25000000    -0.10260000
opls_700-79    C    0.98018987    0.02395993    0.25000000    0.06580000
opls_142-80    C    0.24561008    0.13671008    0.25000000    0.08010000
opls_700-81    C    0.29017998    0.15255997    0.25000000    0.00680000
opls_145-82    C    0.30475001    0.12424988    0.25000000    -0.15270000
opls_729-83    C    0.34684990    0.13795999    0.25000000    0.07080000
opls_145-84    C    0.23653998    0.48925998    0.75000000    0.18390000
opls_145-85    C    0.28013006    0.50964021    0.75000000    -0.14140000
opls_145-86    C    0.30327018    0.55254014    0.75000000    -0.13960000
opls_700-87    C    0.28446008    0.57723001    0.75000000    0.05970000
opls_145-88    C    0.24087994    0.55652993    0.75000000    -0.09800000
opls_145-89    C    0.21744994    0.51364995    0.75000000    -0.14130000
opls_145-90    C    0.29032001    0.64715021    0.75000000    -0.10260000
opls_700-91    C    0.30940997    0.62287012    0.75000000    0.06580000
opls_142-92    C    0.19634992    0.77527999    0.75000000    0.08010000
opls_700-93    C    0.18048019    0.80398021    0.75000000    0.00690000
opls_145-94    C    0.20879003    0.84686020    0.75000000    -0.15260000
opls_729-95    C    0.19509009    0.87525009    0.75000000    0.07080000
opls_145-96    C    0.09699002    0.17739011    0.75000000    0.18430000
opls_145-97    C    0.05339997    0.15705992    0.75000000    -0.14180000
opls_145-98    C    0.03021002    0.11415016    0.75000000    -0.13960000
opls_700-99    C    0.04896997    0.08942008    0.75000000    0.05960000
opls_145-100    C    0.09255007    0.11006000    0.75000000    -0.09790000
opls_145-101    C    0.11601995    0.15295011    0.75000000    -0.14140000
opls_145-102    C    0.04301008    0.01947011    0.75000000    -0.10260000
opls_700-103    C    0.02396014    0.04377015    0.75000000    0.06570000
opls_142-104    C    0.13671007    0.89109998    0.75000000    0.08010000
opls_700-105    C    0.15256014    0.86238011    0.75000000    0.00680000
opls_145-106    C    0.12425004    0.81950013    0.75000000    -0.15270000
opls_729-107    C    0.13796008    0.79111024    0.75000000    0.07080000
opls_145-108    C    0.51074017    0.74728023    0.75000000    0.18390000
opls_145-109    C    0.49036009    0.77048997    0.75000000    -0.14140000
opls_145-110    C    0.44746005    0.75073009    0.75000000    -0.13960000
opls_700-111    C    0.42276996    0.70723006    0.75000000    0.05960000
opls_145-112    C    0.44347012    0.68435000    0.75000000    -0.09800000
opls_145-113    C    0.48635008    0.70380016    0.75000000    -0.14140000
opls_145-114    C    0.35285005    0.64316993    0.75000000    -0.10260000
opls_700-115    C    0.37713018    0.68654012    0.75000000    0.06580000
opls_142-116    C    0.22472000    0.42107008    0.75000000    0.08010000
opls_700-117    C    0.19601996    0.37650001    0.75000000    0.00690000
opls_145-118    C    0.15314008    0.36193012    0.75000000    -0.15260000
opls_729-119    C    0.12474983    0.31983993    0.75000000    0.07090000
opls_145-120    C    0.82261013    0.91960008    0.75000000    0.18430000
opls_145-121    C    0.84294006    0.89634000    0.75000000    -0.14180000
opls_145-122    C    0.88584991    0.91605997    0.75000000    -0.13950000
opls_700-123    C    0.91058002    0.95955018    0.75000000    0.05960000
opls_145-124    C    0.88994009    0.98249010    0.75000000    -0.09790000
opls_145-125    C    0.84704992    0.96307002    0.75000000    -0.14140000
opls_145-126    C    0.98052991    0.02354002    0.75000000    -0.10260000
opls_700-127    C    0.95623014    0.98019009    0.75000000    0.06570000
opls_142-128    C    0.10890000    0.24561009    0.75000000    0.08010000
opls_700-129    C    0.13761999    0.29018016    0.75000000    0.00680000
opls_145-130    C    0.18050013    0.30475006    0.75000000    -0.15260000
opls_729-131    C    0.20888997    0.34685007    0.75000000    0.07080000
opls_145-132    C    0.25272000    0.76346010    0.75000000    0.18390000
opls_145-133    C    0.22951000    0.71987013    0.75000000    -0.14140000
opls_145-134    C    0.24926992    0.69673008    0.75000000    -0.13960000
opls_700-135    C    0.29276996    0.71553993    0.75000000    0.05960000
opls_145-136    C    0.31564994    0.75912007    0.75000000    -0.09800000
opls_145-137    C    0.29620014    0.78255020    0.75000000    -0.14140000
opls_145-138    C    0.35683009    0.70968017    0.75000000    -0.10250000
opls_700-139    C    0.31346001    0.69059007    0.75000000    0.06580000
opls_142-140    C    0.57893023    0.80365024    0.75000000    0.08010000
opls_700-141    C    0.62350001    0.81952008    0.75000000    0.00690000
opls_145-142    C    0.63807004    0.79121000    0.75000000    -0.15270000
opls_729-143    C    0.68016008    0.80490998    0.75000000    0.07080000
opls_145-144    C    0.08040000    0.90301012    0.75000000    0.18430000
opls_145-145    C    0.10365998    0.94660008    0.75000000    -0.14180000
opls_145-146    C    0.08393996    0.96979017    0.75000000    -0.13960000
opls_700-147    C    0.04044989    0.95103005    0.75000000    0.05960000
opls_145-148    C    0.01751000    0.90745021    0.75000000    -0.09800000
opls_145-149    C    0.03693001    0.88398018    0.75000000    -0.14130000
opls_145-150    C    0.97646016    0.95699018    0.75000000    -0.10250000
opls_700-151    C    0.01981013    0.97604007    0.75000000    0.06570000
opls_142-152    C    0.75439008    0.86329023    0.75000000    0.08010000
opls_700-153    C    0.70982002    0.84744003    0.75000000    0.00680000
opls_145-154    C    0.69524999    0.87575012    0.75000000    -0.15270000
opls_729-155    C    0.65315010    0.86204001    0.75000000    0.07080000
opls_146-156    H    0.70359003    0.50800997    0.25000000    0.11670000
opls_146-157    H    0.66292998    0.43302994    0.25000000    0.11590000
opls_146-158    H    0.77550996    0.42593991    0.25000000    0.11570000
opls_146-159    H    0.81642997    0.50162010    0.25000000    0.11570000
opls_146-160    H    0.74348007    0.36819996    0.25000000    0.10070000
opls_144-161    H    0.82703002    0.25841009    0.25000000    0.04120000
opls_146-162    H    0.75809016    0.14302014    0.25000000    0.11680000
opls_146-163    H    0.96284007    0.82526013    0.25000000    0.11570000
opls_146-164    H    0.00358011    0.90023003    0.25000000    0.11600000
opls_146-165    H    0.89110006    0.90750024    0.25000000    0.11620000
opls_146-166    H    0.85009022    0.83183018    0.25000000    0.11420000
opls_146-167    H    0.92317992    0.96523006    0.25000000    0.06800000
opls_144-168    H    0.83989006    0.07522007    0.25000000    0.04120000
opls_146-169    H    0.90886993    0.19062997    0.25000000    0.11670000
opls_146-170    H    0.49199008    0.19557992    0.25000000    0.11680000
opls_146-171    H    0.56697013    0.22990017    0.25000000    0.11590000
opls_146-172    H    0.57406007    0.34956999    0.25000000    0.11570000
opls_146-173    H    0.49838015    0.31481018    0.25000000    0.11570000
opls_146-174    H    0.63180006    0.37528017    0.25000000    0.10070000
opls_144-175    H    0.74159000    0.56861994    0.25000000    0.04120000
opls_146-176    H    0.85698000    0.61507011    0.25000000    0.11590000
opls_146-177    H    0.17474007    0.13757998    0.25000000    0.11570000
opls_146-178    H    0.09977005    0.10334998    0.25000000    0.11600000
opls_146-179    H    0.09249995    0.98360005    0.25000000    0.11620000
opls_146-180    H    0.16817014    0.01826010    0.25000000    0.11420000
opls_146-181    H    0.03477011    0.95795002    0.25000000    0.06800000
opls_144-182    H    0.92478016    0.76467011    0.25000000    0.04120000
opls_146-183    H    0.80936998    0.71824021    0.25000000    0.11670000
opls_146-184    H    0.80442016    0.29641011    0.25000000    0.11670000
opls_146-185    H    0.77009989    0.33706989    0.25000000    0.11590000
opls_146-186    H    0.65042996    0.22449010    0.25000000    0.11570000
opls_146-187    H    0.68519003    0.18357003    0.25000000    0.11580000
opls_146-188    H    0.62472002    0.25652017    0.25000000    0.10080000
opls_144-189    H    0.43137998    0.17296997    0.25000000    0.04120000
opls_146-190    H    0.38492999    0.24191007    0.25000000    0.11590000
opls_146-191    H    0.86241986    0.03715989    0.25000000    0.11570000
opls_146-192    H    0.89665010    0.99641999    0.25000000    0.11610000
opls_146-193    H    0.01640014    0.10890002    0.25000000    0.11630000
opls_146-194    H    0.98174007    0.14991003    0.25000000    0.11420000
opls_146-195    H    0.04204997    0.07681992    0.25000000    0.06800000
opls_144-196    H    0.23532993    0.16011012    0.25000000    0.04120000
opls_146-197    H    0.28175997    0.09113013    0.25000000    0.11670000
opls_146-198    H    0.29640997    0.49199003    0.75000000    0.11670000
opls_146-199    H    0.33707002    0.56697006    0.75000000    0.11620000
opls_146-200    H    0.22449004    0.57406009    0.75000000    0.11570000
opls_146-201    H    0.18357019    0.49838020    0.75000000    0.11570000
opls_146-202    H    0.25651993    0.63180004    0.75000000    0.10070000
opls_144-203    H    0.17297013    0.74159022    0.75000000    0.04130000
opls_146-204    H    0.24190999    0.85698017    0.75000000    0.11680000
opls_146-205    H    0.03715993    0.17473987    0.75000000    0.11570000
opls_146-206    H    0.99641989    0.09976997    0.75000000    0.11600000
opls_146-207    H    0.10890009    0.09250006    0.75000000    0.11620000
opls_146-208    H    0.14990994    0.16817013    0.75000000    0.11420000
opls_146-209    H    0.07682008    0.03476994    0.75000000    0.06800000
opls_144-210    H    0.16011009    0.92478024    0.75000000    0.04120000
opls_146-211    H    0.09113007    0.80937003    0.75000000    0.11670000
opls_146-212    H    0.50800992    0.80442008    0.75000000    0.11670000
opls_146-213    H    0.43303002    0.77010013    0.75000000    0.11600000
opls_146-214    H    0.42593993    0.65043001    0.75000000    0.11570000
opls_146-215    H    0.50162000    0.68519013    0.75000000    0.11570000
opls_146-216    H    0.36820009    0.62472013    0.75000000    0.10070000
opls_144-217    H    0.25841000    0.43138006    0.75000000    0.04120000
opls_146-218    H    0.14302000    0.38492989    0.75000000    0.11680000
opls_146-219    H    0.82525993    0.86242002    0.75000000    0.11580000
opls_146-220    H    0.90022995    0.89665002    0.75000000    0.11600000
opls_146-221    H    0.90750020    0.01640026    0.75000000    0.11620000
opls_146-222    H    0.83183002    0.98174021    0.75000000    0.11420000
opls_146-223    H    0.96522989    0.04204998    0.75000000    0.06800000
opls_144-224    H    0.07521984    0.23532989    0.75000000    0.04120000
opls_146-225    H    0.19063017    0.28176010    0.75000000    0.11670000
opls_146-226    H    0.19557999    0.70359020    0.75000000    0.11670000
opls_146-227    H    0.22990011    0.66293011    0.75000000    0.11590000
opls_146-228    H    0.34957019    0.77551020    0.75000000    0.11570000
opls_146-229    H    0.31480997    0.81642997    0.75000000    0.11580000
opls_146-230    H    0.37528013    0.74348014    0.75000000    0.10070000
opls_144-231    H    0.56862002    0.82703003    0.75000000    0.04120000
opls_146-232    H    0.61507001    0.75808993    0.75000000    0.11590000
opls_146-233    H    0.13758014    0.96284011    0.75000000    0.11570000
opls_146-234    H    0.10334990    0.00358001    0.75000000    0.11610000
opls_146-235    H    0.98359986    0.89109998    0.75000000    0.11620000
opls_146-236    H    0.01825993    0.85008997    0.75000000    0.11420000
opls_146-237    H    0.95795003    0.92318008    0.75000000    0.06800000
opls_144-238    H    0.76467022    0.83989018    0.75000000    0.04120000
opls_146-239    H    0.71824018    0.90887018    0.75000000    0.11670000
opls_730-240    Br    0.90371007    0.26746002    0.25000000    -0.08830000
opls_730-241    Br    0.76324005    0.06617014    0.25000000    -0.08840000
opls_730-242    Br    0.73253988    0.63624995    0.25000000    -0.08840000
opls_730-243    Br    0.93383016    0.69707018    0.25000000    -0.08840000
opls_730-244    Br    0.36375004    0.09629003    0.25000000    -0.08840000
opls_730-245    Br    0.30292994    0.23675999    0.25000000    -0.08830000
opls_730-246    Br    0.09628993    0.73253998    0.75000000    -0.08840000
opls_730-247    Br    0.23676011    0.93383017    0.75000000    -0.08840000
opls_730-248    Br    0.26746012    0.36375005    0.75000000    -0.08840000
opls_730-249    Br    0.06616999    0.30293012    0.75000000    -0.08840000
opls_730-250    Br    0.63624996    0.90370997    0.75000000    -0.08840000
opls_730-251    Br    0.69707006    0.76324001    0.75000000    -0.08840000
