#======================================================================
# Crystal Data Generated By AuToFF
#----------------------------------------------------------------------

data_AuToFF_phase_1

_cell_length_a                         22.1200
_cell_length_b                         22.1200
_cell_length_c                         3.2800
_cell_angle_alpha                      90.00
_cell_angle_beta                       90.00
_cell_angle_gamma                      120.00
_symmetry_space_group_name_H-M_alt     'P 1'
_symmetry_space_group_IT_number        1

loop_
_space_group_symop_operation_xyz
   'x, y, z'

loop_
   _atom_site_label
   _atom_site_type_symbol
   _atom_site_fract_x
   _atom_site_fract_y
   _atom_site_fract_z
   _atom_site_charge
opls_719-0    F    0.42830993    0.35659996    0.00000000    -0.08730000
opls_719-1    F    0.64340018    0.07170994    0.00000000    -0.08730000
opls_719-2    F    0.92828990    0.57169010    0.00000000    -0.08730000
opls_719-3    F    0.57169007    0.64340004    0.00000000    -0.08730000
opls_719-4    F    0.35659982    0.92829006    0.00000000    -0.08730000
opls_719-5    F    0.07171010    0.42830990    0.00000000    -0.08730000
opls_719-6    F    0.35777010    0.42603025    0.00000000    -0.09340000
opls_719-7    F    0.57396994    0.93174007    0.00000000    -0.09340000
opls_719-8    F    0.06826022    0.64223020    0.00000000    -0.09340000
opls_719-9    F    0.64223016    0.57397027    0.00000000    -0.09340000
opls_719-10    F    0.42603006    0.06825993    0.00000000    -0.09340000
opls_719-11    F    0.93173978    0.35776980    0.00000000    -0.09340000
opls_281-12    O    0.70395005    0.47092994    0.00000000    -0.45400000
opls_281-13    O    0.52907005    0.23301984    0.00000000    -0.45400000
opls_281-14    O    0.76697990    0.29605021    0.00000000    -0.45400000
opls_281-15    O    0.29604995    0.52907006    0.00000000    -0.45400000
opls_281-16    O    0.47092995    0.76698016    0.00000000    -0.45400000
opls_281-17    O    0.23302036    0.70395031    0.00000000    -0.45400000
opls_238-18    N    0.57966996    0.43562022    0.00000000    -0.24990000
opls_238-19    N    0.56437986    0.14404995    0.00000000    -0.25050000
opls_238-20    N    0.85594973    0.42032983    0.00000000    -0.24990000
opls_238-21    N    0.42033030    0.56438030    0.00000000    -0.24990000
opls_238-22    N    0.43562014    0.85595005    0.00000000    -0.25050000
opls_238-23    N    0.14405027    0.57967017    0.00000000    -0.24990000
opls_280-24    C    0.68596969    0.40652980    0.00000000    0.32980000
opls_280-25    C    0.59347008    0.27944017    0.00000000    0.32980000
opls_280-26    C    0.72056022    0.31403003    0.00000000    0.32980000
opls_280-27    C    0.31403031    0.59347020    0.00000000    0.32980000
opls_280-28    C    0.40652992    0.72055983    0.00000000    0.32980000
opls_280-29    C    0.27943978    0.68596997    0.00000000    0.32990000
opls_700-30    C    0.61379034    0.35215029    0.00000000    -0.17190000
opls_700-31    C    0.64784980    0.26163993    0.00000000    -0.17190000
opls_700-32    C    0.73835986    0.38620978    0.00000000    -0.17180000
opls_700-33    C    0.38620993    0.64785023    0.00000000    -0.17190000
opls_700-34    C    0.35215020    0.73836007    0.00000000    -0.17190000
opls_700-35    C    0.26164014    0.61379022    0.00000000    -0.17190000
opls_142-36    C    0.56120009    0.36839023    0.00000000    0.13940000
opls_142-37    C    0.63160977    0.19280995    0.00000000    0.13940000
opls_142-38    C    0.80718969    0.43879982    0.00000000    0.13940000
opls_142-39    C    0.43880018    0.63161030    0.00000000    0.13940000
opls_142-40    C    0.36839023    0.80719005    0.00000000    0.13940000
opls_142-41    C    0.19281031    0.56120018    0.00000000    0.13940000
opls_916-42    C    0.53790014    0.46432017    0.00000000    -0.01460000
opls_916-43    C    0.53568005    0.07357980    0.00000000    -0.01460000
opls_916-44    C    0.92641982    0.46210003    0.00000000    -0.01450000
opls_916-45    C    0.46209986    0.53567983    0.00000000    -0.01460000
opls_916-46    C    0.46431995    0.92642020    0.00000000    -0.01460000
opls_916-47    C    0.07358018    0.53789997    0.00000000    -0.01460000
opls_727-48    C    0.42812009    0.46239027    0.00000000    0.12320000
opls_727-49    C    0.53761009    0.96573013    0.00000000    0.12320000
opls_727-50    C    0.03427008    0.57188012    0.00000000    0.12320000
opls_727-51    C    0.57188017    0.53761025    0.00000000    0.12320000
opls_727-52    C    0.46238991    0.03426987    0.00000000    0.12320000
opls_727-53    C    0.96572992    0.42811988    0.00000000    0.12320000
opls_727-54    C    0.46464993    0.42727996    0.00000000    0.12280000
opls_727-55    C    0.57271987    0.03737012    0.00000000    0.12280000
opls_727-56    C    0.96262975    0.53534992    0.00000000    0.12280000
opls_727-57    C    0.53535007    0.57272004    0.00000000    0.12280000
opls_727-58    C    0.42728013    0.96262988    0.00000000    0.12280000
opls_727-59    C    0.03737025    0.46465008    0.00000000    0.12280000
opls_910-60    H    0.63062018    0.47461016    0.00000000    0.28790000
opls_910-61    H    0.52539011    0.15600987    0.00000000    0.28790000
opls_910-62    H    0.84399017    0.36937997    0.00000000    0.28790000
opls_910-63    H    0.36937982    0.52538984    0.00000000    0.28790000
opls_910-64    H    0.47460989    0.84399013    0.00000000    0.28790000
opls_910-65    H    0.15600983    0.63062003    0.00000000    0.28790000
opls_144-66    H    0.49486014    0.67126006    0.00000000    0.06800000
opls_144-67    H    0.32873995    0.82360016    0.00000000    0.06830000
opls_144-68    H    0.17640017    0.50514030    0.00000000    0.06800000
opls_144-69    H    0.50513986    0.32873994    0.00000000    0.06800000
opls_144-70    H    0.67126005    0.17639984    0.00000000    0.06830000
opls_144-71    H    0.82360009    0.49486022    0.00000000    0.06830000
