#======================================================================
# Crystal Data Generated By AuToFF
#----------------------------------------------------------------------

data_AuToFF_phase_1

_cell_length_a                         31.8964
_cell_length_b                         31.8964
_cell_length_c                         4.4028
_cell_angle_alpha                      90.00
_cell_angle_beta                       90.00
_cell_angle_gamma                      120.00
_symmetry_space_group_name_H-M_alt     'P 1'
_symmetry_space_group_IT_number        1

loop_
_space_group_symop_operation_xyz
   'x, y, z'

loop_
   _atom_site_label
   _atom_site_type_symbol
   _atom_site_fract_x
   _atom_site_fract_y
   _atom_site_fract_z
   _atom_site_charge
opls_700-0    C    0.10565999    0.05124988    0.35002044    0.06770000
opls_145-1    C    0.12477000    0.03025006    0.54587989    -0.12920000
opls_145-2    C    0.17357991    0.05129006    0.60896929    -0.11650000
opls_700-3    C    0.20624001    0.09698987    0.48873898    0.05630000
opls_145-4    C    0.18778991    0.11943993    0.30017943    -0.12090000
opls_145-5    C    0.13879995    0.09680018    0.23036931    -0.12670000
opls_700-6    C    0.97474000    0.02646988    0.30452894    -0.02970000
opls_145-7    C    0.86070987    0.18093993    0.90734078    0.19820000
opls_145-8    C    0.80988985    0.15192001    0.92105024    -0.17560000
opls_145-9    C    0.78200997    0.16968015    0.04763105    -0.12860000
opls_700-10    C    0.80320985    0.21709990    0.16357999    0.06160000
opls_145-11    C    0.85410022    0.24556015    0.15303898    -0.13120000
opls_145-12    C    0.88230994    0.22776996    0.03209094    -0.16770000
opls_142-13    C    0.13348991    0.25697994    0.57698056    0.06970000
opls_700-14    C    0.22666016    0.76311014    0.28031026    0.06180000
opls_145-15    C    0.27378015    0.78011005    0.16849051    -0.12750000
opls_145-16    C    0.30052017    0.75849009    0.25253929    -0.12500000
opls_700-17    C    0.28143002    0.71870019    0.45143999    0.06190000
opls_145-18    C    0.23517024    0.70289023    0.57368039    -0.13120000
opls_145-19    C    0.20852012    0.72475020    0.49093077    -0.13160000
opls_700-20    C    0.30806011    0.69250001    0.50357046    0.07240000
opls_145-21    C    0.28291999    0.64172002    0.50729990    -0.17690000
opls_700-22    C    0.94875002    0.05440992    0.35002044    0.06770000
opls_145-23    C    0.96974992    0.09451984    0.54587989    -0.12920000
opls_145-24    C    0.94871010    0.12229008    0.60896929    -0.11650000
opls_700-25    C    0.90301004    0.10924991    0.48873898    0.05630000
opls_145-26    C    0.88055989    0.06835007    0.30017943    -0.12090000
opls_145-27    C    0.90319988    0.04200001    0.23036931    -0.12670000
opls_700-28    C    0.97352996    0.94827009    0.30452894    -0.02970000
opls_145-29    C    0.81906012    0.67977008    0.90734078    0.19820000
opls_145-30    C    0.84808004    0.65797020    0.92105024    -0.17560000
opls_145-31    C    0.83032014    0.61233012    0.04763105    -0.12980000
opls_700-32    C    0.78289995    0.58611003    0.16357999    0.06170000
opls_145-33    C    0.75444001    0.60854017    0.15303898    -0.13120000
opls_145-34    C    0.77222998    0.65454010    0.03209094    -0.16770000
opls_142-35    C    0.74302021    0.87651019    0.57698056    0.06970000
opls_700-36    C    0.23688994    0.46354988    0.28031026    0.06180000
opls_145-37    C    0.21988994    0.49366997    0.16849051    -0.12750000
opls_145-38    C    0.24151004    0.54202987    0.25253929    -0.12530000
opls_700-39    C    0.28130008    0.56272995    0.45143999    0.06190000
opls_145-40    C    0.29710998    0.53228006    0.57368039    -0.13120000
opls_145-41    C    0.27524985    0.48376992    0.49093077    -0.13170000
opls_700-42    C    0.30750004    0.61556003    0.50357046    0.07240000
opls_145-43    C    0.35828020    0.64120017    0.50729990    -0.17690000
opls_700-44    C    0.94558999    0.89434021    0.35002044    0.06770000
opls_145-45    C    0.90548008    0.87523011    0.54587989    -0.12920000
opls_145-46    C    0.87771018    0.82642022    0.60896929    -0.11650000
opls_700-47    C    0.89075026    0.79376022    0.48873898    0.05630000
opls_145-48    C    0.93164989    0.81221000    0.30017943    -0.12090000
opls_145-49    C    0.95800005    0.86120018    0.23036931    -0.12680000
opls_700-50    C    0.05173004    0.02526003    0.30452894    -0.02970000
opls_145-51    C    0.32023002    0.13928999    0.90734078    0.19820000
opls_145-52    C    0.34202997    0.19011016    0.92105024    -0.17560000
opls_145-53    C    0.38767007    0.21799009    0.04763105    -0.12860000
opls_700-54    C    0.41388989    0.19679008    0.16357999    0.06160000
opls_145-55    C    0.39145995    0.14590004    0.15303898    -0.13120000
opls_145-56    C    0.34546008    0.11768995    0.03209094    -0.16770000
opls_142-57    C    0.12349006    0.86651023    0.57698056    0.06970000
opls_700-58    C    0.53644990    0.77333998    0.28031026    0.06180000
opls_145-59    C    0.50632992    0.72621998    0.16849051    -0.12740000
opls_145-60    C    0.45797010    0.69948004    0.25253929    -0.12530000
opls_700-61    C    0.43727009    0.71857023    0.45143999    0.06190000
opls_145-62    C    0.46771996    0.76483008    0.57368039    -0.13120000
opls_145-63    C    0.51623021    0.79148024    0.49093077    -0.13170000
opls_700-64    C    0.38443984    0.69193997    0.50357046    0.07240000
opls_145-65    C    0.35879999    0.71708017    0.50729990    -0.17690000
opls_700-66    C    0.89434001    0.94875012    0.35002044    0.06770000
opls_145-67    C    0.87523000    0.96974994    0.54587989    -0.12920000
opls_145-68    C    0.82642009    0.94870994    0.60896929    -0.11650000
opls_700-69    C    0.79375999    0.90301013    0.48873898    0.05630000
opls_145-70    C    0.81221009    0.88056007    0.30017943    -0.12090000
opls_145-71    C    0.86120024    0.90320019    0.23036931    -0.12680000
opls_700-72    C    0.02526000    0.97353012    0.30452894    -0.02970000
opls_145-73    C    0.13929013    0.81906007    0.90734078    0.19820000
opls_145-74    C    0.19011015    0.84807999    0.92105024    -0.17560000
opls_145-75    C    0.21799021    0.83032021    0.04763105    -0.12860000
opls_700-76    C    0.19679015    0.78290010    0.16357999    0.06160000
opls_145-77    C    0.14589996    0.75444022    0.15303898    -0.13120000
opls_145-78    C    0.11769006    0.77223004    0.03209094    -0.16770000
opls_142-79    C    0.86651009    0.74302006    0.57698056    0.06970000
opls_700-80    C    0.77333984    0.23688986    0.28031026    0.06180000
opls_145-81    C    0.72621985    0.21988995    0.16849051    -0.12750000
opls_145-82    C    0.69947983    0.24150991    0.25253929    -0.12530000
opls_700-83    C    0.71857017    0.28130017    0.45143999    0.06190000
opls_145-84    C    0.76482994    0.29711014    0.57368039    -0.13120000
opls_145-85    C    0.79148006    0.27525016    0.49093077    -0.13170000
opls_700-86    C    0.69193989    0.30749999    0.50357046    0.07250000
opls_145-87    C    0.71708001    0.35827998    0.50729990    -0.17690000
opls_700-88    C    0.05124998    0.94559008    0.35002044    0.06770000
opls_145-89    C    0.03025008    0.90548016    0.54587989    -0.12920000
opls_145-90    C    0.05128990    0.87770992    0.60896929    -0.11650000
opls_700-91    C    0.09698996    0.89075009    0.48873898    0.05630000
opls_145-92    C    0.11944011    0.93164993    0.30017943    -0.12090000
opls_145-93    C    0.09680012    0.95799999    0.23036931    -0.12670000
opls_700-94    C    0.02647004    0.05172991    0.30452894    -0.02970000
opls_145-95    C    0.18093988    0.32022992    0.90734078    0.19830000
opls_145-96    C    0.15192014    0.34203016    0.92105024    -0.17560000
opls_145-97    C    0.16967986    0.38766988    0.04763105    -0.12860000
opls_700-98    C    0.21710005    0.41388997    0.16357999    0.06170000
opls_145-99    C    0.24556017    0.39146019    0.15303898    -0.13120000
opls_145-100    C    0.22777002    0.34545990    0.03209094    -0.16770000
opls_142-101    C    0.25697997    0.12349017    0.57698056    0.06970000
opls_700-102    C    0.76311006    0.53645012    0.28031026    0.06180000
opls_145-103    C    0.78011006    0.50633003    0.16849051    -0.12740000
opls_145-104    C    0.75848996    0.45797013    0.25253929    -0.12520000
opls_700-105    C    0.71869992    0.43727005    0.45143999    0.06190000
opls_145-106    C    0.70289002    0.46771994    0.57368039    -0.13120000
opls_145-107    C    0.72475015    0.51623008    0.49093077    -0.13170000
opls_700-108    C    0.69249996    0.38443997    0.50357046    0.07240000
opls_145-109    C    0.64171998    0.35880019    0.50729990    -0.17690000
opls_700-110    C    0.05441019    0.10566016    0.35002044    0.06770000
opls_145-111    C    0.09451992    0.12476989    0.54587989    -0.12920000
opls_145-112    C    0.12229000    0.17358015    0.60896929    -0.11650000
opls_700-113    C    0.10924992    0.20624014    0.48873898    0.05630000
opls_145-114    C    0.06835011    0.18779000    0.30017943    -0.12090000
opls_145-115    C    0.04200014    0.13880018    0.23036931    -0.12680000
opls_700-116    C    0.94826996    0.97473997    0.30452894    -0.02970000
opls_145-117    C    0.67976998    0.86071001    0.90734078    0.19820000
opls_145-118    C    0.65797021    0.80989020    0.92105024    -0.17550000
opls_145-119    C    0.61232993    0.78200991    0.04763105    -0.12850000
opls_700-120    C    0.58611011    0.80320992    0.16357999    0.06160000
opls_145-121    C    0.60854005    0.85409996    0.15303898    -0.13120000
opls_145-122    C    0.65453992    0.88231005    0.03209094    -0.16760000
opls_142-123    C    0.87651012    0.13349013    0.57698056    0.06980000
opls_700-124    C    0.46355010    0.22666002    0.28031026    0.06180000
opls_145-125    C    0.49367008    0.27378002    0.16849051    -0.12750000
opls_145-126    C    0.54202990    0.30051996    0.25253929    -0.12530000
opls_700-127    C    0.56273009    0.28143014    0.45143999    0.06190000
opls_145-128    C    0.53228004    0.23516992    0.57368039    -0.13110000
opls_145-129    C    0.48376997    0.20852012    0.49093077    -0.13170000
opls_700-130    C    0.61556016    0.30806003    0.50357046    0.07240000
opls_145-131    C    0.64120019    0.28292019    0.50729990    -0.17690000
opls_750-132    N    0.16403997    0.27331012    0.79923004    -0.28890000
opls_750-133    N    0.72668994    0.89073018    0.79923004    -0.28880000
opls_750-134    N    0.10926996    0.83596006    0.79923004    -0.28890000
opls_750-135    N    0.83596021    0.72669024    0.79923004    -0.28890000
opls_750-136    N    0.27331024    0.10927018    0.79923004    -0.28880000
opls_750-137    N    0.89073004    0.16403994    0.79923004    -0.28880000
opls_146-138    H    0.09937990    0.99667995    0.65534887    0.11530000
opls_146-139    H    0.18712008    0.03426011    0.76469974    0.10590000
opls_146-140    H    0.21225011    0.15513000    0.20575089    0.10540000
opls_146-141    H    0.12647014    0.11600006    0.08744890    0.11900000
opls_146-142    H    0.79250985    0.11463996    0.83986100    0.10560000
opls_146-143    H    0.74290988    0.14591995    0.06270101    0.10550000
opls_146-144    H    0.87177999    0.28255999    0.23910012    0.10550000
opls_146-145    H    0.92167008    0.24988008    0.02792995    0.10550000
opls_146-146    H    0.28846991    0.80847002    0.99644999    0.10520000
opls_146-147    H    0.33550004    0.77043010    0.14518942    0.10600000
opls_146-148    H    0.22037008    0.67372007    0.74069910    0.10560000
opls_146-149    H    0.17333999    0.71249994    0.59620015    0.10500000
opls_146-150    H    0.24351010    0.62230004    0.49413101    0.10550000
opls_144-151    H    0.12363998    0.28048998    0.44838966    0.06260000
opls_146-152    H    0.00332010    0.10269995    0.65534887    0.11540000
opls_146-153    H    0.96574016    0.15286016    0.76469974    0.10590000
opls_146-154    H    0.84486997    0.05711997    0.20575089    0.10550000
opls_146-155    H    0.88399993    0.01046986    0.08744890    0.11900000
opls_146-156    H    0.88536010    0.67787022    0.83986100    0.10560000
opls_146-157    H    0.85407998    0.59699005    0.06270101    0.10550000
opls_146-158    H    0.71743990    0.58922011    0.23910012    0.10550000
opls_146-159    H    0.75012020    0.67179016    0.02792995    0.10550000
opls_146-160    H    0.19152990    0.47999988    0.99644999    0.10520000
opls_146-161    H    0.22957010    0.56507002    0.14518942    0.10600000
opls_146-162    H    0.32627984    0.54664992    0.74069910    0.10560000
opls_146-163    H    0.28750020    0.46084019    0.59620015    0.10500000
opls_146-164    H    0.37770004    0.62121001    0.49413101    0.10550000
opls_144-165    H    0.71950991    0.84315006    0.44838966    0.06260000
opls_146-166    H    0.89729999    0.90062010    0.65534887    0.11530000
opls_146-167    H    0.84713994    0.81288009    0.76469974    0.10610000
opls_146-168    H    0.94287992    0.78775003    0.20575089    0.10550000
opls_146-169    H    0.98952993    0.87353008    0.08744890    0.11900000
opls_146-170    H    0.32213024    0.20749018    0.83986100    0.10560000
opls_146-171    H    0.40301014    0.25708999    0.06270101    0.10560000
opls_146-172    H    0.41077980    0.12821991    0.23910012    0.10560000
opls_146-173    H    0.32820991    0.07833012    0.02792995    0.10550000
opls_146-174    H    0.52000020    0.71153010    0.99644999    0.10520000
opls_146-175    H    0.43493005    0.66450024    0.14518942    0.10600000
opls_146-176    H    0.45335008    0.77963001    0.74069910    0.10560000
opls_146-177    H    0.53915999    0.82666023    0.59620015    0.10500000
opls_146-178    H    0.37878986    0.75648995    0.49413101    0.10550000
opls_144-179    H    0.15685011    0.87635996    0.44838966    0.06260000
opls_146-180    H    0.90062010    0.00332005    0.65534887    0.11530000
opls_146-181    H    0.81288010    0.96574026    0.76469974    0.10600000
opls_146-182    H    0.78774989    0.84487000    0.20575089    0.10540000
opls_146-183    H    0.87352986    0.88399994    0.08744890    0.11900000
opls_146-184    H    0.20749015    0.88536004    0.83986100    0.10560000
opls_146-185    H    0.25709012    0.85408005    0.06270101    0.10550000
opls_146-186    H    0.12822001    0.71744001    0.23910012    0.10550000
opls_146-187    H    0.07832992    0.75011992    0.02792995    0.10550000
opls_146-188    H    0.71153009    0.19152998    0.99644999    0.10520000
opls_146-189    H    0.66449996    0.22956990    0.14518942    0.10600000
opls_146-190    H    0.77962992    0.32627993    0.74069910    0.10570000
opls_146-191    H    0.82666001    0.28750006    0.59620015    0.10500000
opls_146-192    H    0.75648990    0.37769996    0.49413101    0.10550000
opls_144-193    H    0.87636002    0.71951002    0.44838966    0.06260000
opls_146-194    H    0.99667990    0.89730005    0.65534887    0.11530000
opls_146-195    H    0.03426002    0.84714020    0.76469974    0.10600000
opls_146-196    H    0.15513003    0.94288003    0.20575089    0.10550000
opls_146-197    H    0.11600007    0.98953014    0.08744890    0.11900000
opls_146-198    H    0.11464008    0.32213015    0.83986100    0.10560000
opls_146-199    H    0.14592002    0.40300995    0.06270101    0.10550000
opls_146-200    H    0.28256010    0.41077989    0.23910012    0.10550000
opls_146-201    H    0.24987999    0.32821020    0.02792995    0.10600000
opls_146-202    H    0.80847010    0.52000012    0.99644999    0.10520000
opls_146-203    H    0.77042990    0.43492998    0.14518942    0.10610000
opls_146-204    H    0.67372016    0.45335008    0.74069910    0.10560000
opls_146-205    H    0.71249998    0.53916017    0.59620015    0.10500000
opls_146-206    H    0.62229996    0.37878999    0.49413101    0.10550000
opls_144-207    H    0.28049009    0.15684994    0.44838966    0.06260000
opls_146-208    H    0.10270001    0.09937990    0.65534887    0.11540000
opls_146-209    H    0.15286006    0.18711991    0.76469974    0.10590000
opls_146-210    H    0.05712008    0.21224997    0.20575089    0.10540000
opls_146-211    H    0.01047007    0.12646992    0.08744890    0.11900000
opls_146-212    H    0.67786994    0.79251018    0.83986100    0.10570000
opls_146-213    H    0.59698986    0.74291001    0.06270101    0.10550000
opls_146-214    H    0.58922020    0.87178009    0.23910012    0.10550000
opls_146-215    H    0.67179027    0.92167024    0.02792995    0.10550000
opls_146-216    H    0.47999980    0.28846990    0.99644999    0.10530000
opls_146-217    H    0.56507013    0.33550012    0.14518942    0.10600000
opls_146-218    H    0.54664992    0.22036999    0.74069910    0.10560000
opls_146-219    H    0.46084019    0.17334013    0.59620015    0.10500000
opls_146-220    H    0.62121014    0.24351005    0.49413101    0.10550000
opls_144-221    H    0.84314989    0.12364004    0.44838966    0.06260000
