#======================================================================
# Crystal Data Generated By AuToFF
#----------------------------------------------------------------------

data_AuToFF_phase_1

_cell_length_a                         36.5600
_cell_length_b                         36.5600
_cell_length_c                         3.6500
_cell_angle_alpha                      90.00
_cell_angle_beta                       90.00
_cell_angle_gamma                      120.00
_symmetry_space_group_name_H-M_alt     'P 1'
_symmetry_space_group_IT_number        1

loop_
_space_group_symop_operation_xyz
   'x, y, z'

loop_
   _atom_site_label
   _atom_site_type_symbol
   _atom_site_fract_x
   _atom_site_fract_y
   _atom_site_fract_z
   _atom_site_charge
opls_166-0    C    0.58577002    0.36593994    0.44432877    0.16730000
opls_145-1    C    0.58777001    0.32954002    0.44061918    -0.23030000
opls_567-2    C    0.49210999    0.45889996    0.47547123    -0.11900000
opls_716-3    C    0.56198006    0.47911985    0.46663014    -0.17510000
opls_166-4    C    0.54195017    0.53395012    0.48790959    0.16330000
opls_145-5    C    0.66044009    0.40710994    0.44743014    -0.23030000
opls_166-6    C    0.62166016    0.40426014    0.44827945    0.16730000
opls_567-7    C    0.54370003    0.43608989    0.45827123    -0.36180000
opls_716-8    C    0.53299979    0.49233984    0.47430137    -0.01540000
opls_700-9    C    0.66424989    0.37066991    0.44361918    0.02860000
opls_700-10    C    0.62683004    0.33073010    0.44244110    0.03010000
opls_182-11    C    0.60014990    0.60357989    0.69692055    0.04290000
opls_135-12    C    0.64332997    0.61312985    0.83124110    -0.46300000
opls_166-13    C    0.63405992    0.21982990    0.44432877    0.16730000
opls_145-14    C    0.67045991    0.25823000    0.44061918    -0.23030000
opls_567-15    C    0.54110006    0.03320996    0.47547123    -0.11900000
opls_716-16    C    0.52087988    0.08285987    0.46663014    -0.17510000
opls_166-17    C    0.46605013    0.00800015    0.48790959    0.16330000
opls_145-18    C    0.59289016    0.25333011    0.44743014    -0.23030000
opls_166-19    C    0.59573986    0.21739985    0.44827945    0.16730000
opls_567-20    C    0.56391010    0.10761013    0.45827123    -0.36180000
opls_716-21    C    0.50765983    0.04065992    0.47430137    -0.01540000
opls_700-22    C    0.62932997    0.29358007    0.44361918    0.02860000
opls_700-23    C    0.66926998    0.29610014    0.44244110    0.03010000
opls_182-24    C    0.39642012    0.99657001    0.69692055    0.04290000
opls_135-25    C    0.38686998    0.03020003    0.83124110    -0.46300000
opls_166-26    C    0.78016990    0.41422985    0.44432877    0.16730000
opls_145-27    C    0.74177007    0.41222997    0.44061918    -0.23030000
opls_567-28    C    0.96678995    0.50789008    0.47547123    -0.11900000
opls_716-29    C    0.91713991    0.43801997    0.46663014    -0.17510000
opls_166-30    C    0.99200013    0.45805004    0.48790959    0.16330000
opls_145-31    C    0.74667002    0.33955996    0.44743014    -0.23030000
opls_166-32    C    0.78259999    0.37834002    0.44827945    0.16730000
opls_567-33    C    0.89238987    0.45629999    0.45827123    -0.36180000
opls_716-34    C    0.95933995    0.46699992    0.47430137    -0.01540000
opls_700-35    C    0.70642014    0.33575001    0.44361918    0.02860000
opls_700-36    C    0.70390014    0.37317008    0.44244110    0.03010000
opls_182-37    C    0.00342998    0.39985010    0.69692055    0.04290000
opls_135-38    C    0.96980005    0.35667012    0.83124110    -0.46300000
opls_166-39    C    0.41422998    0.63406006    0.44432877    0.16730000
opls_145-40    C    0.41222999    0.67045998    0.44061918    -0.23030000
opls_567-41    C    0.50789001    0.54110004    0.47547123    -0.11900000
opls_716-42    C    0.43801979    0.52087983    0.46663014    -0.17510000
opls_166-43    C    0.45804983    0.46604988    0.48790959    0.16330000
opls_145-44    C    0.33955991    0.59289006    0.44743014    -0.23030000
opls_166-45    C    0.37833984    0.59573986    0.44827945    0.16730000
opls_567-46    C    0.45629997    0.56391011    0.45827123    -0.36180000
opls_716-47    C    0.46700005    0.50765984    0.47430137    -0.01540000
opls_700-48    C    0.33575011    0.62933009    0.44361918    0.02860000
opls_700-49    C    0.37316996    0.66926990    0.44244110    0.03010000
opls_182-50    C    0.39985010    0.39642011    0.69692055    0.04290000
opls_135-51    C    0.35666987    0.38686983    0.83124110    -0.46300000
opls_166-52    C    0.36594008    0.78017010    0.44432877    0.16730000
opls_145-53    C    0.32954009    0.74177000    0.44061918    -0.23030000
opls_567-54    C    0.45889994    0.96679004    0.47547123    -0.11900000
opls_716-55    C    0.47911996    0.91713982    0.46663014    -0.17510000
opls_166-56    C    0.53394987    0.99199985    0.48790959    0.16330000
opls_145-57    C    0.40710984    0.74666989    0.44743014    -0.23030000
opls_166-58    C    0.40425998    0.78259984    0.44827945    0.16730000
opls_567-59    C    0.43608990    0.89238987    0.45827123    -0.36180000
opls_716-60    C    0.49234017    0.95934008    0.47430137    -0.01540000
opls_700-61    C    0.37067003    0.70641993    0.44361918    0.02860000
opls_700-62    C    0.33073002    0.70389986    0.44244110    0.03010000
opls_182-63    C    0.60357988    0.00342999    0.69692055    0.04290000
opls_135-64    C    0.61313002    0.96979997    0.83124110    -0.46300000
opls_166-65    C    0.21982994    0.58576983    0.44432877    0.16730000
opls_145-66    C    0.25822993    0.58777003    0.44061918    -0.23030000
opls_567-67    C    0.03321005    0.49210992    0.47547123    -0.11900000
opls_716-68    C    0.08286009    0.56198003    0.46663014    -0.17500000
opls_166-69    C    0.00799987    0.54194996    0.48790959    0.16330000
opls_145-70    C    0.25332998    0.66044004    0.44743014    -0.23030000
opls_166-71    C    0.21740001    0.62165998    0.44827945    0.16730000
opls_567-72    C    0.10761013    0.54370001    0.45827123    -0.36180000
opls_716-73    C    0.04066005    0.53300008    0.47430137    -0.01540000
opls_700-74    C    0.29357986    0.66424999    0.44361918    0.02860000
opls_700-75    C    0.29609986    0.62682992    0.44244110    0.03010000
opls_182-76    C    0.99657002    0.60014990    0.69692055    0.04300000
opls_135-77    C    0.03019995    0.64332988    0.83124110    -0.46290000
opls_167-78    O    0.55180997    0.37004992    0.44578904    -0.35520000
opls_167-79    O    0.61298989    0.43535999    0.45323014    -0.35450000
opls_179-80    O    0.58285004    0.56388990    0.51938904    -0.19280000
opls_167-81    O    0.62994994    0.18175984    0.44578904    -0.35520000
opls_167-82    O    0.56463992    0.17762995    0.45323014    -0.35450000
opls_179-83    O    0.43610993    0.01896002    0.51938904    -0.19280000
opls_167-84    O    0.81823993    0.44818992    0.44578904    -0.35520000
opls_167-85    O    0.82236991    0.38701006    0.45323014    -0.35450000
opls_179-86    O    0.98104003    0.41715008    0.51938904    -0.19270000
opls_167-87    O    0.44819003    0.62995008    0.44578904    -0.35520000
opls_167-88    O    0.38701011    0.56464001    0.45323014    -0.35430000
opls_179-89    O    0.41714996    0.43611010    0.51938904    -0.19280000
opls_167-90    O    0.37004990    0.81823985    0.44578904    -0.35520000
opls_167-91    O    0.43536008    0.82237005    0.45323014    -0.35450000
opls_179-92    O    0.56389007    0.98103998    0.51938904    -0.19280000
opls_167-93    O    0.18176007    0.55181008    0.44578904    -0.35520000
opls_167-94    O    0.17763009    0.61298994    0.45323014    -0.35440000
opls_179-95    O    0.01895997    0.58284992    0.51938904    -0.19280000
MOF2_B_2-96    B    0.56817001    0.41434987    0.45221096    0.53910000
MOF2_B_2-97    B    0.58564985    0.15381994    0.45221096    0.53920000
MOF2_B_2-98    B    0.84617998    0.43182987    0.45221096    0.53910000
MOF2_B_2-99    B    0.43182999    0.58565013    0.45221096    0.53910000
MOF2_B_2-100    B    0.41435015    0.84618006    0.45221096    0.53910000
MOF2_B_2-101    B    0.15382002    0.56817013    0.45221096    0.53920000
opls_633-102    S    0.48972006    0.41091988    0.45743014    0.19400000
opls_633-103    S    0.58908003    0.07880010    0.45743014    0.19400000
opls_633-104    S    0.92119991    0.51028002    0.45743014    0.19400000
opls_633-105    S    0.51027994    0.58908012    0.45743014    0.19400000
opls_633-106    S    0.41091997    0.92119990    0.45743014    0.19400000
opls_633-107    S    0.07880009    0.48971998    0.45743014    0.19400000
opls_146-108    H    0.55974012    0.30310004    0.43695890    0.22920000
opls_570-109    H    0.59341001    0.49907002    0.46772877    0.22810000
opls_146-110    H    0.68479989    0.43655985    0.45058082    0.22940000
opls_185-111    H    0.58033001    0.60201997    0.92892877    0.06700000
opls_185-112    H    0.60268997    0.62791987    0.50983014    0.08150000
opls_140-113    H    0.66338994    0.61602987    0.59941918    0.10650000
opls_140-114    H    0.63977000    0.58736986    0.00418082    0.11210000
opls_140-115    H    0.65821012    0.64193009    0.99044932    0.11090000
opls_146-116    H    0.69689991    0.25664008    0.43695890    0.22920000
opls_570-117    H    0.50093008    0.09433991    0.46772877    0.22810000
opls_146-118    H    0.56344006    0.24824008    0.45058082    0.22940000
opls_185-119    H    0.39797989    0.97830989    0.92892877    0.06690000
opls_185-120    H    0.37208001    0.97476998    0.50983014    0.08150000
opls_140-121    H    0.38396998    0.04736009    0.59941918    0.10650000
opls_140-122    H    0.41262993    0.05239990    0.00418082    0.11210000
opls_140-123    H    0.35807005    0.01628014    0.99044932    0.11090000
opls_146-124    H    0.74335997    0.44025988    0.43695890    0.22920000
opls_570-125    H    0.90565991    0.40659007    0.46772877    0.22810000
opls_146-126    H    0.75176005    0.31520007    0.45058082    0.22940000
opls_185-127    H    0.02168995    0.41966983    0.92892877    0.06690000
opls_185-128    H    0.02523002    0.39731014    0.50983014    0.08150000
opls_140-129    H    0.95264008    0.33661004    0.59941918    0.10650000
opls_140-130    H    0.94759991    0.36022992    0.00418082    0.11210000
opls_140-131    H    0.98371999    0.34179008    0.99044932    0.11090000
opls_146-132    H    0.44025988    0.69689996    0.43695890    0.22920000
opls_570-133    H    0.40658999    0.50092998    0.46772877    0.22820000
opls_146-134    H    0.31519995    0.56343983    0.45058082    0.22940000
opls_185-135    H    0.41966999    0.39798003    0.92892877    0.06690000
opls_185-136    H    0.39731003    0.37208013    0.50983014    0.08150000
opls_140-137    H    0.33661006    0.38397013    0.59941918    0.10650000
opls_140-138    H    0.36023000    0.41263014    0.00418082    0.11210000
opls_140-139    H    0.34178988    0.35806991    0.99044932    0.11090000
opls_146-140    H    0.30310009    0.74335992    0.43695890    0.22920000
opls_570-141    H    0.49906992    0.90566009    0.46772877    0.22810000
opls_146-142    H    0.43655994    0.75175992    0.45058082    0.22940000
opls_185-143    H    0.60202011    0.02169011    0.92892877    0.06690000
opls_185-144    H    0.62791999    0.02523002    0.50983014    0.08150000
opls_140-145    H    0.61603002    0.95263991    0.59941918    0.10650000
opls_140-146    H    0.58737007    0.94760010    0.00418082    0.11210000
opls_140-147    H    0.64192995    0.98371986    0.99044932    0.11090000
opls_146-148    H    0.25664003    0.55974012    0.43695890    0.22930000
opls_570-149    H    0.09434009    0.59340993    0.46772877    0.22810000
opls_146-150    H    0.24823995    0.68479993    0.45058082    0.22940000
opls_185-151    H    0.97830989    0.58032985    0.92892877    0.06690000
opls_185-152    H    0.97476998    0.60268986    0.50983014    0.08150000
opls_140-153    H    0.04735992    0.66338996    0.59941918    0.10650000
opls_140-154    H    0.05240009    0.63977008    0.00418082    0.11210000
opls_140-155    H    0.01628001    0.65820992    0.99044932    0.11090000
