#======================================================================
# Crystal Data Generated By AuToFF
#----------------------------------------------------------------------

data_AuToFF_phase_1

_cell_length_a                         44.6940
_cell_length_b                         44.4820
_cell_length_c                         4.5380
_cell_angle_alpha                      90.00
_cell_angle_beta                       90.00
_cell_angle_gamma                      120.00
_symmetry_space_group_name_H-M_alt     'P 1'
_symmetry_space_group_IT_number        1

loop_
_space_group_symop_operation_xyz
   'x, y, z'

loop_
   _atom_site_label
   _atom_site_type_symbol
   _atom_site_fract_x
   _atom_site_fract_y
   _atom_site_fract_z
   _atom_site_charge
opls_750-0    N    0.12780995    0.56202005    0.35791979    -0.32630000
opls_750-1    N    0.87101003    0.40934995    0.57661966    -0.32100000
opls_641-2    N    0.35977996    0.66525001    0.63851036    -0.51530000
opls_641-3    N    0.64834995    0.35113001    0.49395989    -0.51600000
opls_750-4    N    0.42617005    0.56097002    0.88076025    -0.33810000
opls_750-5    N    0.57417999    0.45140014    0.78141031    -0.32670000
opls_641-6    N    0.34643002    0.69665993    0.30520053    -0.51530000
opls_641-7    N    0.65573010    0.30286009    0.53120097    -0.51710000
opls_750-8    N    0.44785001    0.87576001    0.16762891    -0.32440000
opls_750-9    N    0.55393999    0.13396988    0.13527104    -0.32660000
opls_641-10    N    0.30218011    0.64641013    0.52325033    -0.51710000
opls_641-11    N    0.69745006    0.35631010    0.72340899    -0.51600000
opls_142-12    C    0.14591994    0.59442991    0.43635963    0.07210000
opls_145-13    C    0.09107014    0.54077016    0.39750992    0.19850000
opls_145-14    C    0.06894998    0.55476015    0.39280961    -0.17080000
opls_145-15    C    0.03317007    0.53312995    0.42267078    -0.12590000
opls_700-16    C    0.01866999    0.49695996    0.45717056    0.07090000
opls_145-17    C    0.04103004    0.48317011    0.45960996    -0.12630000
opls_145-18    C    0.07676010    0.50488000    0.42724989    -0.16350000
opls_142-19    C    0.85339004    0.38358997    0.75680917    0.07080000
opls_145-20    C    0.90807008    0.43022994    0.55288894    0.20060000
opls_145-21    C    0.93111005    0.42362991    0.71334068    -0.16270000
opls_145-22    C    0.96689992    0.44499999    0.67992067    -0.12570000
opls_700-23    C    0.98053008    0.47378003    0.48882107    0.06880000
opls_145-24    C    0.95732988    0.48017992    0.32836933    -0.12520000
opls_145-25    C    0.92160001    0.45829013    0.35801895    -0.15730000
opls_642-26    C    0.36998997    0.69307008    0.46291979    0.57190000
opls_642-27    C    0.63689989    0.31727996    0.44148964    0.56670000
opls_166-28    C    0.41474004    0.74933013    0.32089907    0.26340000
opls_145-29    C    0.23579004    0.62257992    0.13973997    -0.21650000
opls_145-30    C    0.20047998    0.60178015    0.20362054    -0.12650000
opls_700-31    C    0.18331993    0.61514999    0.37319965    0.05940000
opls_145-32    C    0.20220999    0.64930999    0.48079110    -0.12610000
opls_145-33    C    0.23742004    0.66991014    0.41609960    -0.18110000
opls_166-34    C    0.59060988    0.26181996    0.28895989    0.26950000
opls_145-35    C    0.76042993    0.35545008    0.55455928    -0.21650000
opls_145-36    C    0.79667008    0.37382997    0.55710004    -0.12550000
opls_700-37    C    0.81511996    0.36473997    0.75325033    0.07290000
opls_145-38    C    0.79666002    0.33681009    0.94578008    -0.12070000
opls_145-39    C    0.76042998    0.31857998    0.94345086    -0.19440000
opls_142-40    C    0.39271000    0.54436000    0.90734905    0.07300000
opls_145-41    C    0.44664988    0.54439998    0.87371970    0.19810000
opls_145-42    C    0.43789007    0.51438015    0.03925077    -0.16160000
opls_145-43    C    0.45836007    0.49877007    0.02488982    -0.12520000
opls_700-44    C    0.48849007    0.51354999    0.85107977    0.06770000
opls_145-45    C    0.49705998    0.54348000    0.68555090    -0.12460000
opls_145-46    C    0.47638992    0.55888994    0.69951080    -0.16480000
opls_142-47    C    0.60409997    0.46524995    0.65167915    0.07310000
opls_145-48    C    0.55318009    0.46742011    0.79778096    0.19810000
opls_145-49    C    0.56790003    0.50350003    0.83011018    -0.16240000
opls_145-50    C    0.54682993    0.51841000    0.84964963    -0.12420000
opls_700-51    C    0.51070000    0.49752015    0.83778096    0.06900000
opls_145-52    C    0.49605992    0.46141999    0.80964963    -0.12550000
opls_145-53    C    0.51726000    0.44654999    0.79299912    -0.16340000
opls_642-54    C    0.31252003    0.67340004    0.33555972    0.56690000
opls_642-55    C    0.68645994    0.32261995    0.66412076    0.57040000
opls_166-56    C    0.25424004    0.65665997    0.24667915    0.26530000
opls_145-57    C    0.36918996    0.61516011    0.97230057    -0.21720000
opls_145-58    C    0.38841995    0.59809997    0.98232922    -0.12650000
opls_700-59    C    0.37312008    0.56297015    0.90131996    0.06380000
opls_145-60    C    0.33844014    0.54523014    0.81295945    -0.11210000
opls_145-61    C    0.31964014    0.56259011    0.79693037    -0.19510000
opls_166-62    C    0.74192993    0.32799992    0.75314896    0.26450000
opls_145-63    C    0.63684006    0.40310011    0.83031952    -0.21690000
opls_145-64    C    0.61572010    0.41815000    0.82332085    -0.12590000
opls_700-65    C    0.62533002    0.44821006    0.65555972    0.05870000
opls_145-66    C    0.65636007    0.46292015    0.49583076    -0.12280000
opls_145-67    C    0.67762004    0.44817995    0.50695901    -0.18820000
opls_142-68    C    0.45775011    0.85553004    0.04830983    0.07330000
opls_145-69    C    0.46288007    0.91258001    0.12496033    0.20030000
opls_145-70    C    0.49456002    0.93313006    0.97849934    -0.17080000
opls_145-71    C    0.50898003    0.96922996    0.96165051    -0.12650000
opls_700-72    C    0.49213998    0.98549005    0.09128911    0.07300000
opls_145-73    C    0.46028012    0.96476011    0.23384090    -0.12560000
opls_145-74    C    0.44600001    0.92876015    0.25068973    -0.16230000
opls_142-75    C    0.53820005    0.15055991    0.21730939    0.07290000
opls_145-76    C    0.53797000    0.09689003    0.11226972    0.20020000
opls_145-77    C    0.50237992    0.07555992    0.05563905    -0.17450000
opls_145-78    C    0.48763984    0.03944989    0.04470031    -0.12670000
opls_700-79    C    0.50814996    0.02396000    0.08737990    0.07240000
opls_145-80    C    0.54393996    0.04552010    0.13338034    -0.12650000
opls_145-81    C    0.55863998    0.08160988    0.14425077    -0.16160000
opls_642-82    C    0.32586006    0.64186006    0.66942045    0.56680000
opls_642-83    C    0.67823993    0.37047998    0.64131996    0.56600000
opls_166-84    C    0.33495993    0.59771993    0.86903041    0.26570000
opls_145-85    C    0.40122996    0.76954012    0.43438960    -0.21740000
opls_145-86    C    0.41429010    0.80382005    0.33944910    -0.12540000
opls_700-87    C    0.44139992    0.81854000    0.13332085    0.06960000
opls_145-88    C    0.45447002    0.79809016    0.01858969    -0.12070000
opls_145-89    C    0.44136989    0.76388992    0.11433892    -0.19120000
opls_166-90    C    0.66789001    0.41803993    0.66986999    0.26930000
opls_145-91    C    0.60737991    0.24579999    0.15444028    -0.22300000
opls_145-92    C    0.59063004    0.20949008    0.13109960    -0.12900000
opls_700-93    C    0.55668003    0.18886008    0.23769061    0.06010000
opls_145-94    C    0.53985003    0.20509992    0.36570075    -0.12280000
opls_145-95    C    0.55667996    0.24126992    0.38843984    -0.18820000
opls_144-96    H    0.13392994    0.60682006    0.55433010    0.11070000
opls_146-97    H    0.07923016    0.58228014    0.35975981    0.12620000
opls_146-98    H    0.09361006    0.49393005    0.42723006    0.12500000
opls_146-99    H    0.01691004    0.54479014    0.42052005    0.12340000
opls_146-100    H    0.03087994    0.45546010    0.48174086    0.11970000
opls_144-101    H    0.86615008    0.37560010    0.91485015    0.12790000
opls_146-102    H    0.92200996    0.40217000    0.86522036    0.12960000
opls_146-103    H    0.90411005    0.46325995    0.23020053    0.12490000
opls_146-104    H    0.98399010    0.43939003    0.80855002    0.11720000
opls_146-105    H    0.96671997    0.50212006    0.17858087    0.11540000
opls_146-106    H    0.24908002    0.61258993    0.00704055    0.11740000
opls_146-107    H    0.18644015    0.57545011    0.11879903    0.11710000
opls_146-108    H    0.18975996    0.66000996    0.61533054    0.11870000
opls_146-109    H    0.25204005    0.69621006    0.49843103    0.12520000
opls_146-110    H    0.74695996    0.36219003    0.39325033    0.12600000
opls_146-111    H    0.81033013    0.39470009    0.40105994    0.12490000
opls_146-112    H    0.81023993    0.32935990    0.10027986    0.12200000
opls_146-113    H    0.74631990    0.29714993    0.09297929    0.12300000
opls_144-114    H    0.37841011    0.51622011    0.91098061    0.11070000
opls_146-115    H    0.41608997    0.50392991    0.18730057    0.12100000
opls_146-116    H    0.48311999    0.58188998    0.57083076    0.12470000
opls_146-117    H    0.45168002    0.47621990    0.16020053    0.12210000
opls_146-118    H    0.51930005    0.55446006    0.54117893    0.12180000
opls_144-119    H    0.61379006    0.48951004    0.53347069    0.09930000
opls_146-120    H    0.59556004    0.51996000    0.84704055    0.11870000
opls_146-121    H    0.50585003    0.41876989    0.76996033    0.12150000
opls_146-122    H    0.55869006    0.54619997    0.87860071    0.12500000
opls_146-123    H    0.46836997    0.44488006    0.79513001    0.12440000
opls_146-124    H    0.38094991    0.64180996    0.04527104    0.12340000
opls_146-125    H    0.41502013    0.61202013    0.05693037    0.12130000
opls_146-126    H    0.32604013    0.51815015    0.75094094    0.12720000
opls_146-127    H    0.29301017    0.54902013    0.72544072    0.12600000
opls_146-128    H    0.62956002    0.38031994    0.96485015    0.12060000
opls_146-129    H    0.59193008    0.40636002    0.94977082    0.11650000
opls_146-130    H    0.66439004    0.48604012    0.36438078    0.11760000
opls_146-131    H    0.70177001    0.45986012    0.38737990    0.12600000
opls_144-132    H    0.47885997    0.86546007    0.89215073    0.09200000
opls_146-133    H    0.50884010    0.92185017    0.88299030    0.12290000
opls_146-134    H    0.42199005    0.91325001    0.36815998    0.12190000
opls_146-135    H    0.53331007    0.98447013    0.84698986    0.12160000
opls_146-136    H    0.44693005    0.97648000    0.34063023    0.11870000
opls_144-137    H    0.51135992    0.13639002    0.28680917    0.11100000
opls_146-138    H    0.48608004    0.08676998    0.01635963    0.11890000
opls_146-139    H    0.58611010    0.09794006    0.18388938    0.12160000
opls_146-140    H    0.46021003    0.02359009    0.00111944    0.11990000
opls_146-141    H    0.56038009    0.03439000    0.16881005    0.12360000
opls_146-142    H    0.38165994    0.75904003    0.60408109    0.12600000
opls_146-143    H    0.40413998    0.81930994    0.43362935    0.12060000
opls_146-144    H    0.47523006    0.80875015    0.85856104    0.11760000
opls_146-145    H    0.45212014    0.74853008    0.03050022    0.12520000
opls_146-146    H    0.63306997    0.26152014    0.06460996    0.12470000
opls_146-147    H    0.60377014    0.19747010    0.02602027    0.12050000
opls_146-148    H    0.51367986    0.18978993    0.44853900    0.11720000
opls_146-149    H    0.54359012    0.25375014    0.48544072    0.12600000
opls_180-150    O    0.40531015    0.71651013    0.43351036    -0.24650000
opls_180-151    O    0.60511000    0.29791000    0.29862054    -0.24600000
opls_180-152    O    0.28881017    0.67829016    0.17195020    -0.24650000
opls_180-153    O    0.70569006    0.30726998    0.75044072    -0.25150000
opls_180-154    O    0.31440014    0.61323007    0.85698105    -0.24600000
opls_180-155    O    0.69122990    0.40580995    0.69330983    -0.24600000
