#======================================================================
# Crystal Data Generated By AuToFF
#----------------------------------------------------------------------

data_AuToFF_phase_1

_cell_length_a                         34.4000
_cell_length_b                         34.4000
_cell_length_c                         20.0000
_cell_angle_alpha                      90.00
_cell_angle_beta                       90.00
_cell_angle_gamma                      90.00
_symmetry_space_group_name_H-M_alt     'P 1'
_symmetry_space_group_IT_number        1

loop_
_space_group_symop_operation_xyz
   'x, y, z'

loop_
   _atom_site_label
   _atom_site_type_symbol
   _atom_site_fract_x
   _atom_site_fract_y
   _atom_site_fract_z
   _atom_site_charge
opls_700-0    C    0.49787006    0.03782994    0.80312000    0.02210000
opls_700-1    C    0.46182006    0.00027994    0.72330000    0.05030000
opls_700-2    C    0.46369012    0.05687994    0.78737000    0.01910000
opls_145-3    C    0.45682994    0.09482006    0.80911000    -0.13360000
opls_145-4    C    0.48600000    0.11457006    0.84505000    -0.19170000
opls_700-5    C    0.52255000    0.09717006    0.85874000    0.06100000
opls_145-6    C    0.52819012    0.05789012    0.83771000    -0.10430000
opls_145-7    C    0.44294012    0.96872006    0.69006000    -0.10410000
opls_700-8    C    0.40245000    0.97102006    0.67398000    0.06280000
opls_145-9    C    0.38305988    0.00644012    0.68872000    -0.19170000
opls_145-10    C    0.40185988    0.03710000    0.72244000    -0.13240000
opls_700-11    C    0.44077994    0.03299012    0.74092000    0.02100000
opls_700-12    C    0.55382006    0.12145988    0.89299000    0.06080000
opls_700-13    C    0.37945988    0.93674012    0.64550000    0.05960000
opls_145-14    C    0.54400988    0.14487006    0.94829000    -0.12640000
opls_145-15    C    0.57080000    0.17107994    0.97665000    -0.13330000
opls_700-16    C    0.60870000    0.17560000    0.95091000    0.05460000
opls_145-17    C    0.61920988    0.15165000    0.89634000    -0.09790000
opls_145-18    C    0.59222006    0.12482994    0.86806000    -0.13940000
opls_145-19    C    0.39720000    0.90745988    0.60015000    -0.10070000
opls_145-20    C    0.37452994    0.87710988    0.57288000    -0.12820000
opls_700-21    C    0.33459012    0.87290000    0.58791000    0.05470000
opls_145-22    C    0.31779012    0.90015000    0.63199000    -0.14110000
opls_145-23    C    0.33955000    0.93110988    0.66001000    -0.18110000
opls_142-24    C    0.63504012    0.20584012    0.98289000    0.01320000
opls_142-25    C    0.31159012    0.83984012    0.55655000    0.01320000
opls_145-26    C    0.69625000    0.24452994    0.99035000    0.19370000
opls_145-27    C    0.68437994    0.27219012    0.03862000    -0.18860000
opls_145-28    C    0.71040988    0.30065988    0.06324000    -0.20380000
opls_145-29    C    0.74922994    0.30300000    0.04109000    0.18890000
opls_145-30    C    0.76117994    0.27552994    0.99260000    -0.18280000
opls_145-31    C    0.73507006    0.24700988    0.96781000    -0.18280000
opls_700-32    C    0.99787006    0.53782994    0.30312000    0.02210000
opls_700-33    C    0.96182006    0.50027994    0.22330000    0.05040000
opls_700-34    C    0.96369012    0.55687994    0.28737000    0.01910000
opls_145-35    C    0.95682994    0.59482006    0.30911000    -0.13360000
opls_145-36    C    0.98600000    0.61457006    0.34505000    -0.19170000
opls_700-37    C    0.02255000    0.59717006    0.35874000    0.06100000
opls_145-38    C    0.02819012    0.55789012    0.33771000    -0.10430000
opls_145-39    C    0.94294012    0.46872006    0.19006000    -0.10410000
opls_700-40    C    0.90245000    0.47102006    0.17398000    0.06280000
opls_145-41    C    0.88305988    0.50644012    0.18872000    -0.19160000
opls_145-42    C    0.90185988    0.53710000    0.22244000    -0.13260000
opls_700-43    C    0.94077994    0.53299012    0.24092000    0.02100000
opls_700-44    C    0.05382006    0.62145988    0.39299000    0.06080000
opls_700-45    C    0.87945988    0.43674012    0.14550000    0.05960000
opls_145-46    C    0.04400988    0.64487006    0.44829000    -0.12630000
opls_145-47    C    0.07080000    0.67107994    0.47665000    -0.13320000
opls_700-48    C    0.10870000    0.67560000    0.45091000    0.05460000
opls_145-49    C    0.11920988    0.65165000    0.39634000    -0.09790000
opls_145-50    C    0.09222006    0.62482994    0.36806000    -0.13930000
opls_145-51    C    0.89720000    0.40745988    0.10015000    -0.10070000
opls_145-52    C    0.87452994    0.37710988    0.07288000    -0.12820000
opls_700-53    C    0.83459012    0.37290000    0.08791000    0.05470000
opls_145-54    C    0.81779012    0.40015000    0.13199000    -0.14100000
opls_145-55    C    0.83955000    0.43110988    0.16001000    -0.18110000
opls_142-56    C    0.13504012    0.70584012    0.48289000    0.01320000
opls_142-57    C    0.81159012    0.33984012    0.05655000    0.01320000
opls_145-58    C    0.19625000    0.74452994    0.49035000    0.19380000
opls_145-59    C    0.18437994    0.77219012    0.53862000    -0.18860000
opls_145-60    C    0.21040988    0.80065988    0.56324000    -0.20380000
opls_145-61    C    0.24922994    0.80300000    0.54109000    0.18890000
opls_145-62    C    0.26117994    0.77552994    0.49260000    -0.18280000
opls_145-63    C    0.23507006    0.74700988    0.46781000    -0.18270000
opls_700-64    C    0.50212994    0.96217006    0.80312000    0.02210000
opls_700-65    C    0.53817994    0.99972006    0.72330000    0.05030000
opls_700-66    C    0.53630988    0.94312006    0.78737000    0.01910000
opls_145-67    C    0.54317006    0.90517994    0.80911000    -0.13350000
opls_145-68    C    0.51400000    0.88542994    0.84505000    -0.19170000
opls_700-69    C    0.47745000    0.90282994    0.85874000    0.06100000
opls_145-70    C    0.47180988    0.94210988    0.83771000    -0.10430000
opls_145-71    C    0.55705988    0.03127994    0.69006000    -0.10410000
opls_700-72    C    0.59755000    0.02897994    0.67398000    0.06280000
opls_145-73    C    0.61694012    0.99355988    0.68872000    -0.19170000
opls_145-74    C    0.59814012    0.96290000    0.72244000    -0.13250000
opls_700-75    C    0.55922006    0.96700988    0.74092000    0.02110000
opls_700-76    C    0.44617994    0.87854012    0.89299000    0.06080000
opls_700-77    C    0.62054012    0.06325988    0.64550000    0.05960000
opls_145-78    C    0.45599012    0.85512994    0.94829000    -0.12640000
opls_145-79    C    0.42920000    0.82892006    0.97665000    -0.13330000
opls_700-80    C    0.39130000    0.82440000    0.95091000    0.05460000
opls_145-81    C    0.38079012    0.84835000    0.89634000    -0.09790000
opls_145-82    C    0.40777994    0.87517006    0.86806000    -0.13940000
opls_145-83    C    0.60280000    0.09254012    0.60015000    -0.10070000
opls_145-84    C    0.62547006    0.12289012    0.57288000    -0.12820000
opls_700-85    C    0.66540988    0.12710000    0.58791000    0.05470000
opls_145-86    C    0.68220988    0.09985000    0.63199000    -0.14110000
opls_145-87    C    0.66045000    0.06889012    0.66001000    -0.18110000
opls_142-88    C    0.36495988    0.79415988    0.98289000    0.01320000
opls_142-89    C    0.68840988    0.16015988    0.55655000    0.01320000
opls_145-90    C    0.30375000    0.75547006    0.99035000    0.19370000
opls_145-91    C    0.31562006    0.72780988    0.03862000    -0.18860000
opls_145-92    C    0.28959012    0.69934012    0.06324000    -0.20370000
opls_145-93    C    0.25077006    0.69700000    0.04109000    0.18880000
opls_145-94    C    0.23882006    0.72447006    0.99260000    -0.18280000
opls_145-95    C    0.26492994    0.75299012    0.96781000    -0.18270000
opls_700-96    C    0.00212994    0.46217006    0.30312000    0.02210000
opls_700-97    C    0.03817994    0.49972006    0.22330000    0.05040000
opls_700-98    C    0.03630988    0.44312006    0.28737000    0.01910000
opls_145-99    C    0.04317006    0.40517994    0.30911000    -0.13360000
opls_145-100    C    0.01400000    0.38542994    0.34505000    -0.19170000
opls_700-101    C    0.97745000    0.40282994    0.35874000    0.06100000
opls_145-102    C    0.97180988    0.44210988    0.33771000    -0.10430000
opls_145-103    C    0.05705988    0.53127994    0.19006000    -0.10410000
opls_700-104    C    0.09755000    0.52897994    0.17398000    0.06280000
opls_145-105    C    0.11694012    0.49355988    0.18872000    -0.19170000
opls_145-106    C    0.09814012    0.46290000    0.22244000    -0.13260000
opls_700-107    C    0.05922006    0.46700988    0.24092000    0.02100000
opls_700-108    C    0.94617994    0.37854012    0.39299000    0.06080000
opls_700-109    C    0.12054012    0.56325988    0.14550000    0.05960000
opls_145-110    C    0.95599012    0.35512994    0.44829000    -0.12640000
opls_145-111    C    0.92920000    0.32892006    0.47665000    -0.13330000
opls_700-112    C    0.89130000    0.32440000    0.45091000    0.05460000
opls_145-113    C    0.88079012    0.34835000    0.39634000    -0.09790000
opls_145-114    C    0.90777994    0.37517006    0.36806000    -0.13930000
opls_145-115    C    0.10280000    0.59254012    0.10015000    -0.10070000
opls_145-116    C    0.12547006    0.62289012    0.07288000    -0.12820000
opls_700-117    C    0.16540988    0.62710000    0.08791000    0.05470000
opls_145-118    C    0.18220988    0.59985000    0.13199000    -0.14110000
opls_145-119    C    0.16045000    0.56889012    0.16001000    -0.18100000
opls_142-120    C    0.86495988    0.29415988    0.48289000    0.01320000
opls_142-121    C    0.18840988    0.66015988    0.05655000    0.01320000
opls_145-122    C    0.80375000    0.25547006    0.49035000    0.19370000
opls_145-123    C    0.81562006    0.22780988    0.53862000    -0.18850000
opls_145-124    C    0.78959012    0.19934012    0.56324000    -0.20380000
opls_145-125    C    0.75077006    0.19700000    0.54109000    0.18880000
opls_145-126    C    0.73882006    0.22447006    0.49260000    -0.18280000
opls_145-127    C    0.76492994    0.25299012    0.46781000    -0.18280000
opls_700-128    C    0.96217006    0.49787006    0.80312000    0.02210000
opls_700-129    C    0.99972006    0.46182006    0.72330000    0.05030000
opls_700-130    C    0.94312006    0.46369012    0.78737000    0.01910000
opls_145-131    C    0.90517994    0.45682994    0.80911000    -0.13360000
opls_145-132    C    0.88542994    0.48600000    0.84505000    -0.19170000
opls_700-133    C    0.90282994    0.52255000    0.85874000    0.06100000
opls_145-134    C    0.94210988    0.52819012    0.83771000    -0.10430000
opls_145-135    C    0.03127994    0.44294012    0.69006000    -0.10410000
opls_700-136    C    0.02897994    0.40245000    0.67398000    0.06280000
opls_145-137    C    0.99355988    0.38305988    0.68872000    -0.19170000
opls_145-138    C    0.96290000    0.40185988    0.72244000    -0.13260000
opls_700-139    C    0.96700988    0.44077994    0.74092000    0.02100000
opls_700-140    C    0.87854012    0.55382006    0.89299000    0.06080000
opls_700-141    C    0.06325988    0.37945988    0.64550000    0.05960000
opls_145-142    C    0.85512994    0.54400988    0.94829000    -0.12640000
opls_145-143    C    0.82892006    0.57080000    0.97665000    -0.13330000
opls_700-144    C    0.82440000    0.60870000    0.95091000    0.05460000
opls_145-145    C    0.84835000    0.61920988    0.89634000    -0.09790000
opls_145-146    C    0.87517006    0.59222006    0.86806000    -0.13940000
opls_145-147    C    0.09254012    0.39720000    0.60015000    -0.10060000
opls_145-148    C    0.12289012    0.37452994    0.57288000    -0.12820000
opls_700-149    C    0.12710000    0.33459012    0.58791000    0.05470000
opls_145-150    C    0.09985000    0.31779012    0.63199000    -0.14110000
opls_145-151    C    0.06889012    0.33955000    0.66001000    -0.18110000
opls_142-152    C    0.79415988    0.63504012    0.98289000    0.01320000
opls_142-153    C    0.16015988    0.31159012    0.55655000    0.01320000
opls_145-154    C    0.75547006    0.69625000    0.99035000    0.19370000
opls_145-155    C    0.72780988    0.68437994    0.03862000    -0.18860000
opls_145-156    C    0.69934012    0.71040988    0.06324000    -0.20380000
opls_145-157    C    0.69700000    0.74922994    0.04109000    0.18880000
opls_145-158    C    0.72447006    0.76117994    0.99260000    -0.18280000
opls_145-159    C    0.75299012    0.73507006    0.96781000    -0.18280000
opls_700-160    C    0.46217006    0.99787006    0.30312000    0.02210000
opls_700-161    C    0.49972006    0.96182006    0.22330000    0.05030000
opls_700-162    C    0.44312006    0.96369012    0.28737000    0.01910000
opls_145-163    C    0.40517994    0.95682994    0.30911000    -0.13360000
opls_145-164    C    0.38542994    0.98600000    0.34505000    -0.19170000
opls_700-165    C    0.40282994    0.02255000    0.35874000    0.06100000
opls_145-166    C    0.44210988    0.02819012    0.33771000    -0.10420000
opls_145-167    C    0.53127994    0.94294012    0.19006000    -0.10410000
opls_700-168    C    0.52897994    0.90245000    0.17398000    0.06290000
opls_145-169    C    0.49355988    0.88305988    0.18872000    -0.19170000
opls_145-170    C    0.46290000    0.90185988    0.22244000    -0.13250000
opls_700-171    C    0.46700988    0.94077994    0.24092000    0.02100000
opls_700-172    C    0.37854012    0.05382006    0.39299000    0.06080000
opls_700-173    C    0.56325988    0.87945988    0.14550000    0.05960000
opls_145-174    C    0.35512994    0.04400988    0.44829000    -0.12640000
opls_145-175    C    0.32892006    0.07080000    0.47665000    -0.13330000
opls_700-176    C    0.32440000    0.10870000    0.45091000    0.05460000
opls_145-177    C    0.34835000    0.11920988    0.39634000    -0.09790000
opls_145-178    C    0.37517006    0.09222006    0.36806000    -0.13930000
opls_145-179    C    0.59254012    0.89720000    0.10015000    -0.10070000
opls_145-180    C    0.62289012    0.87452994    0.07288000    -0.12820000
opls_700-181    C    0.62710000    0.83459012    0.08791000    0.05470000
opls_145-182    C    0.59985000    0.81779012    0.13199000    -0.14110000
opls_145-183    C    0.56889012    0.83955000    0.16001000    -0.18110000
opls_142-184    C    0.29415988    0.13504012    0.48289000    0.01320000
opls_142-185    C    0.66015988    0.81159012    0.05655000    0.01320000
opls_145-186    C    0.25547006    0.19625000    0.49035000    0.19370000
opls_145-187    C    0.22780988    0.18437994    0.53862000    -0.18860000
opls_145-188    C    0.19934012    0.21040988    0.56324000    -0.20380000
opls_145-189    C    0.19700000    0.24922994    0.54109000    0.18880000
opls_145-190    C    0.22447006    0.26117994    0.49260000    -0.18270000
opls_145-191    C    0.25299012    0.23507006    0.46781000    -0.18280000
opls_700-192    C    0.03782994    0.50212994    0.80312000    0.02210000
opls_700-193    C    0.00027994    0.53817994    0.72330000    0.05030000
opls_700-194    C    0.05687994    0.53630988    0.78737000    0.01910000
opls_145-195    C    0.09482006    0.54317006    0.80911000    -0.13350000
opls_145-196    C    0.11457006    0.51400000    0.84505000    -0.19170000
opls_700-197    C    0.09717006    0.47745000    0.85874000    0.06100000
opls_145-198    C    0.05789012    0.47180988    0.83771000    -0.10430000
opls_145-199    C    0.96872006    0.55705988    0.69006000    -0.10410000
opls_700-200    C    0.97102006    0.59755000    0.67398000    0.06280000
opls_145-201    C    0.00644012    0.61694012    0.68872000    -0.19150000
opls_145-202    C    0.03710000    0.59814012    0.72244000    -0.13250000
opls_700-203    C    0.03299012    0.55922006    0.74092000    0.02100000
opls_700-204    C    0.12145988    0.44617994    0.89299000    0.06080000
opls_700-205    C    0.93674012    0.62054012    0.64550000    0.05960000
opls_145-206    C    0.14487006    0.45599012    0.94829000    -0.12640000
opls_145-207    C    0.17107994    0.42920000    0.97665000    -0.13330000
opls_700-208    C    0.17560000    0.39130000    0.95091000    0.05460000
opls_145-209    C    0.15165000    0.38079012    0.89634000    -0.09790000
opls_145-210    C    0.12482994    0.40777994    0.86806000    -0.13940000
opls_145-211    C    0.90745988    0.60280000    0.60015000    -0.10060000
opls_145-212    C    0.87710988    0.62547006    0.57288000    -0.12820000
opls_700-213    C    0.87290000    0.66540988    0.58791000    0.05470000
opls_145-214    C    0.90015000    0.68220988    0.63199000    -0.14100000
opls_145-215    C    0.93110988    0.66045000    0.66001000    -0.18110000
opls_142-216    C    0.20584012    0.36495988    0.98289000    0.01330000
opls_142-217    C    0.83984012    0.68840988    0.55655000    0.01320000
opls_145-218    C    0.24452994    0.30375000    0.99035000    0.19380000
opls_145-219    C    0.27219012    0.31562006    0.03862000    -0.18860000
opls_145-220    C    0.30065988    0.28959012    0.06324000    -0.20380000
opls_145-221    C    0.30300000    0.25077006    0.04109000    0.18880000
opls_145-222    C    0.27552994    0.23882006    0.99260000    -0.18280000
opls_145-223    C    0.24700988    0.26492994    0.96781000    -0.18280000
opls_700-224    C    0.53782994    0.00212994    0.30312000    0.02210000
opls_700-225    C    0.50027994    0.03817994    0.22330000    0.05030000
opls_700-226    C    0.55687994    0.03630988    0.28737000    0.01910000
opls_145-227    C    0.59482006    0.04317006    0.30911000    -0.13360000
opls_145-228    C    0.61457006    0.01400000    0.34505000    -0.19170000
opls_700-229    C    0.59717006    0.97745000    0.35874000    0.06100000
opls_145-230    C    0.55789012    0.97180988    0.33771000    -0.10430000
opls_145-231    C    0.46872006    0.05705988    0.19006000    -0.10410000
opls_700-232    C    0.47102006    0.09755000    0.17398000    0.06280000
opls_145-233    C    0.50644012    0.11694012    0.18872000    -0.19170000
opls_145-234    C    0.53710000    0.09814012    0.22244000    -0.13260000
opls_700-235    C    0.53299012    0.05922006    0.24092000    0.02100000
opls_700-236    C    0.62145988    0.94617994    0.39299000    0.06080000
opls_700-237    C    0.43674012    0.12054012    0.14550000    0.05960000
opls_145-238    C    0.64487006    0.95599012    0.44829000    -0.12640000
opls_145-239    C    0.67107994    0.92920000    0.47665000    -0.13330000
opls_700-240    C    0.67560000    0.89130000    0.45091000    0.05460000
opls_145-241    C    0.65165000    0.88079012    0.39634000    -0.09790000
opls_145-242    C    0.62482994    0.90777994    0.36806000    -0.13930000
opls_145-243    C    0.40745988    0.10280000    0.10015000    -0.10070000
opls_145-244    C    0.37710988    0.12547006    0.07288000    -0.12820000
opls_700-245    C    0.37290000    0.16540988    0.08791000    0.05480000
opls_145-246    C    0.40015000    0.18220988    0.13199000    -0.14110000
opls_145-247    C    0.43110988    0.16045000    0.16001000    -0.18110000
opls_142-248    C    0.70584012    0.86495988    0.48289000    0.01320000
opls_142-249    C    0.33984012    0.18840988    0.05655000    0.01320000
opls_145-250    C    0.74452994    0.80375000    0.49035000    0.19370000
opls_145-251    C    0.77219012    0.81562006    0.53862000    -0.18860000
opls_145-252    C    0.80065988    0.78959012    0.56324000    -0.20370000
opls_145-253    C    0.80300000    0.75077006    0.54109000    0.18890000
opls_145-254    C    0.77552994    0.73882006    0.49260000    -0.18280000
opls_145-255    C    0.74700988    0.76492994    0.46781000    -0.18280000
opls_701-256    C    0.00000000    0.50000000    0.26293000    0.01500000
opls_701-257    C    0.50000000    0.00000000    0.76293000    0.01500000
opls_701-258    C    0.50000000    0.00000000    0.26293000    0.01500000
opls_701-259    C    0.00000000    0.50000000    0.76293000    0.01500000
opls_750-260    N    0.67024012    0.21475988    0.96219000    -0.24890000
opls_750-261    N    0.27449012    0.83355988    0.56838000    -0.25220000
opls_750-262    N    0.17024012    0.71475988    0.46219000    -0.24880000
opls_750-263    N    0.77449012    0.33355988    0.06838000    -0.25240000
opls_750-264    N    0.32975988    0.78524012    0.96219000    -0.24890000
opls_750-265    N    0.72550988    0.16644012    0.56838000    -0.25240000
opls_750-266    N    0.82975988    0.28524012    0.46219000    -0.24890000
opls_750-267    N    0.22550988    0.66644012    0.06838000    -0.25240000
opls_750-268    N    0.78524012    0.67024012    0.96219000    -0.24880000
opls_750-269    N    0.16644012    0.27449012    0.56838000    -0.25240000
opls_750-270    N    0.28524012    0.17024012    0.46219000    -0.24880000
opls_750-271    N    0.66644012    0.77449012    0.06838000    -0.25220000
opls_750-272    N    0.21475988    0.32975988    0.96219000    -0.24890000
opls_750-273    N    0.83355988    0.72550988    0.56838000    -0.25240000
opls_750-274    N    0.71475988    0.82975988    0.46219000    -0.24890000
opls_750-275    N    0.33355988    0.22550988    0.06838000    -0.25240000
opls_146-276    H    0.43009012    0.10959012    0.79623000    0.11650000
opls_146-277    H    0.48059012    0.14437994    0.85970000    0.11410000
opls_146-278    H    0.55592994    0.04377006    0.84565000    0.11390000
opls_146-279    H    0.45870000    0.94190000    0.68207000    0.11640000
opls_146-280    H    0.35277994    0.01022994    0.67568000    0.11660000
opls_146-281    H    0.38565000    0.06277006    0.73658000    0.11650000
opls_146-282    H    0.51507994    0.14324012    0.96949000    0.11170000
opls_146-283    H    0.56142006    0.18855000    0.01872000    0.11180000
opls_146-284    H    0.64802006    0.15395000    0.87495000    0.11370000
opls_146-285    H    0.60095988    0.10772994    0.82516000    0.11240000
opls_146-286    H    0.42755988    0.90974012    0.58654000    0.11350000
opls_146-287    H    0.38842994    0.85665988    0.53935000    0.11170000
opls_146-288    H    0.28735000    0.89759012    0.64502000    0.11220000
opls_146-289    H    0.32477006    0.95057006    0.69406000    0.11340000
opls_144-290    H    0.62312994    0.22087994    0.02566000    0.11720000
opls_144-291    H    0.32715000    0.82075000    0.52298000    0.11900000
opls_146-292    H    0.65495000    0.27259012    0.05732000    0.11040000
opls_146-293    H    0.70005000    0.32132994    0.09999000    0.11360000
opls_146-294    H    0.79045988    0.27587006    0.97311000    0.11580000
opls_146-295    H    0.74529012    0.22660988    0.93051000    0.11240000
opls_146-296    H    0.93009012    0.60959012    0.29623000    0.11640000
opls_146-297    H    0.98059012    0.64437994    0.35970000    0.11410000
opls_146-298    H    0.05592994    0.54377006    0.34565000    0.11380000
opls_146-299    H    0.95870000    0.44190000    0.18207000    0.11640000
opls_146-300    H    0.85277994    0.51022994    0.17568000    0.11660000
opls_146-301    H    0.88565000    0.56277006    0.23658000    0.11650000
opls_146-302    H    0.01507994    0.64324012    0.46949000    0.11170000
opls_146-303    H    0.06142006    0.68855000    0.51872000    0.11170000
opls_146-304    H    0.14802006    0.65395000    0.37495000    0.11370000
opls_146-305    H    0.10095988    0.60772994    0.32516000    0.11240000
opls_146-306    H    0.92755988    0.40974012    0.08654000    0.11350000
opls_146-307    H    0.88842994    0.35665988    0.03935000    0.11170000
opls_146-308    H    0.78735000    0.39759012    0.14502000    0.11210000
opls_146-309    H    0.82477006    0.45057006    0.19406000    0.11340000
opls_144-310    H    0.12312994    0.72087994    0.52566000    0.11720000
opls_144-311    H    0.82715000    0.32075000    0.02298000    0.11900000
opls_146-312    H    0.15495000    0.77259012    0.55732000    0.11040000
opls_146-313    H    0.20005000    0.82132994    0.59999000    0.11360000
opls_146-314    H    0.29045988    0.77587006    0.47311000    0.11570000
opls_146-315    H    0.24529012    0.72660988    0.43051000    0.11240000
opls_146-316    H    0.56990988    0.89040988    0.79623000    0.11640000
opls_146-317    H    0.51940988    0.85562006    0.85970000    0.11410000
opls_146-318    H    0.44407006    0.95622994    0.84565000    0.11380000
opls_146-319    H    0.54130000    0.05810000    0.68207000    0.11640000
opls_146-320    H    0.64722006    0.98977006    0.67568000    0.11660000
opls_146-321    H    0.61435000    0.93722994    0.73658000    0.11640000
opls_146-322    H    0.48492006    0.85675988    0.96949000    0.11170000
opls_146-323    H    0.43857994    0.81145000    0.01872000    0.11170000
opls_146-324    H    0.35197994    0.84605000    0.87495000    0.11370000
opls_146-325    H    0.39904012    0.89227006    0.82516000    0.11240000
opls_146-326    H    0.57244012    0.09025988    0.58654000    0.11350000
opls_146-327    H    0.61157006    0.14334012    0.53935000    0.11170000
opls_146-328    H    0.71265000    0.10240988    0.64502000    0.11210000
opls_146-329    H    0.67522994    0.04942994    0.69406000    0.11330000
opls_144-330    H    0.37687006    0.77912006    0.02566000    0.11720000
opls_144-331    H    0.67285000    0.17925000    0.52298000    0.11900000
opls_146-332    H    0.34505000    0.72740988    0.05732000    0.11040000
opls_146-333    H    0.29995000    0.67867006    0.09999000    0.11360000
opls_146-334    H    0.20954012    0.72412994    0.97311000    0.11570000
opls_146-335    H    0.25470988    0.77339012    0.93051000    0.11250000
opls_146-336    H    0.06990988    0.39040988    0.29623000    0.11640000
opls_146-337    H    0.01940988    0.35562006    0.35970000    0.11420000
opls_146-338    H    0.94407006    0.45622994    0.34565000    0.11390000
opls_146-339    H    0.04130000    0.55810000    0.18207000    0.11640000
opls_146-340    H    0.14722006    0.48977006    0.17568000    0.11660000
opls_146-341    H    0.11435000    0.43722994    0.23658000    0.11640000
opls_146-342    H    0.98492006    0.35675988    0.46949000    0.11170000
opls_146-343    H    0.93857994    0.31145000    0.51872000    0.11180000
opls_146-344    H    0.85197994    0.34605000    0.37495000    0.11370000
opls_146-345    H    0.89904012    0.39227006    0.32516000    0.11240000
opls_146-346    H    0.07244012    0.59025988    0.08654000    0.11360000
opls_146-347    H    0.11157006    0.64334012    0.03935000    0.11170000
opls_146-348    H    0.21265000    0.60240988    0.14502000    0.11210000
opls_146-349    H    0.17522994    0.54942994    0.19406000    0.11330000
opls_144-350    H    0.87687006    0.27912006    0.52566000    0.11720000
opls_144-351    H    0.17285000    0.67925000    0.02298000    0.11900000
opls_146-352    H    0.84505000    0.22740988    0.55732000    0.11040000
opls_146-353    H    0.79995000    0.17867006    0.59999000    0.11360000
opls_146-354    H    0.70954012    0.22412994    0.47311000    0.11570000
opls_146-355    H    0.75470988    0.27339012    0.43051000    0.11240000
opls_146-356    H    0.89040988    0.43009012    0.79623000    0.11650000
opls_146-357    H    0.85562006    0.48059012    0.85970000    0.11410000
opls_146-358    H    0.95622994    0.55592994    0.84565000    0.11380000
opls_146-359    H    0.05810000    0.45870000    0.68207000    0.11640000
opls_146-360    H    0.98977006    0.35277994    0.67568000    0.11660000
opls_146-361    H    0.93722994    0.38565000    0.73658000    0.11650000
opls_146-362    H    0.85675988    0.51507994    0.96949000    0.11170000
opls_146-363    H    0.81145000    0.56142006    0.01872000    0.11170000
opls_146-364    H    0.84605000    0.64802006    0.87495000    0.11380000
opls_146-365    H    0.89227006    0.60095988    0.82516000    0.11240000
opls_146-366    H    0.09025988    0.42755988    0.58654000    0.11350000
opls_146-367    H    0.14334012    0.38842994    0.53935000    0.11170000
opls_146-368    H    0.10240988    0.28735000    0.64502000    0.11210000
opls_146-369    H    0.04942994    0.32477006    0.69406000    0.11330000
opls_144-370    H    0.77912006    0.62312994    0.02566000    0.11720000
opls_144-371    H    0.17925000    0.32715000    0.52298000    0.11900000
opls_146-372    H    0.72740988    0.65495000    0.05732000    0.11040000
opls_146-373    H    0.67867006    0.70005000    0.09999000    0.11360000
opls_146-374    H    0.72412994    0.79045988    0.97311000    0.11570000
opls_146-375    H    0.77339012    0.74529012    0.93051000    0.11240000
opls_146-376    H    0.39040988    0.93009012    0.29623000    0.11640000
opls_146-377    H    0.35562006    0.98059012    0.35970000    0.11410000
opls_146-378    H    0.45622994    0.05592994    0.34565000    0.11390000
opls_146-379    H    0.55810000    0.95870000    0.18207000    0.11640000
opls_146-380    H    0.48977006    0.85277994    0.17568000    0.11660000
opls_146-381    H    0.43722994    0.88565000    0.23658000    0.11640000
opls_146-382    H    0.35675988    0.01507994    0.46949000    0.11170000
opls_146-383    H    0.31145000    0.06142006    0.51872000    0.11170000
opls_146-384    H    0.34605000    0.14802006    0.37495000    0.11370000
opls_146-385    H    0.39227006    0.10095988    0.32516000    0.11240000
opls_146-386    H    0.59025988    0.92755988    0.08654000    0.11350000
opls_146-387    H    0.64334012    0.88842994    0.03935000    0.11180000
opls_146-388    H    0.60240988    0.78735000    0.14502000    0.11210000
opls_146-389    H    0.54942994    0.82477006    0.19406000    0.11330000
opls_144-390    H    0.27912006    0.12312994    0.52566000    0.11720000
opls_144-391    H    0.67925000    0.82715000    0.02298000    0.11900000
opls_146-392    H    0.22740988    0.15495000    0.55732000    0.11040000
opls_146-393    H    0.17867006    0.20005000    0.59999000    0.11360000
opls_146-394    H    0.22412994    0.29045988    0.47311000    0.11570000
opls_146-395    H    0.27339012    0.24529012    0.43051000    0.11240000
opls_146-396    H    0.10959012    0.56990988    0.79623000    0.11640000
opls_146-397    H    0.14437994    0.51940988    0.85970000    0.11410000
opls_146-398    H    0.04377006    0.44407006    0.84565000    0.11380000
opls_146-399    H    0.94190000    0.54130000    0.68207000    0.11640000
opls_146-400    H    0.01022994    0.64722006    0.67568000    0.11660000
opls_146-401    H    0.06277006    0.61435000    0.73658000    0.11640000
opls_146-402    H    0.14324012    0.48492006    0.96949000    0.11180000
opls_146-403    H    0.18855000    0.43857994    0.01872000    0.11170000
opls_146-404    H    0.15395000    0.35197994    0.87495000    0.11370000
opls_146-405    H    0.10772994    0.39904012    0.82516000    0.11240000
opls_146-406    H    0.90974012    0.57244012    0.58654000    0.11350000
opls_146-407    H    0.85665988    0.61157006    0.53935000    0.11170000
opls_146-408    H    0.89759012    0.71265000    0.64502000    0.11210000
opls_146-409    H    0.95057006    0.67522994    0.69406000    0.11330000
opls_144-410    H    0.22087994    0.37687006    0.02566000    0.11720000
opls_144-411    H    0.82075000    0.67285000    0.52298000    0.11920000
opls_146-412    H    0.27259012    0.34505000    0.05732000    0.11040000
opls_146-413    H    0.32132994    0.29995000    0.09999000    0.11360000
opls_146-414    H    0.27587006    0.20954012    0.97311000    0.11570000
opls_146-415    H    0.22660988    0.25470988    0.93051000    0.11240000
opls_146-416    H    0.60959012    0.06990988    0.29623000    0.11640000
opls_146-417    H    0.64437994    0.01940988    0.35970000    0.11410000
opls_146-418    H    0.54377006    0.94407006    0.34565000    0.11380000
opls_146-419    H    0.44190000    0.04130000    0.18207000    0.11650000
opls_146-420    H    0.51022994    0.14722006    0.17568000    0.11660000
opls_146-421    H    0.56277006    0.11435000    0.23658000    0.11640000
opls_146-422    H    0.64324012    0.98492006    0.46949000    0.11170000
opls_146-423    H    0.68855000    0.93857994    0.51872000    0.11170000
opls_146-424    H    0.65395000    0.85197994    0.37495000    0.11370000
opls_146-425    H    0.60772994    0.89904012    0.32516000    0.11250000
opls_146-426    H    0.40974012    0.07244012    0.08654000    0.11360000
opls_146-427    H    0.35665988    0.11157006    0.03935000    0.11170000
opls_146-428    H    0.39759012    0.21265000    0.14502000    0.11210000
opls_146-429    H    0.45057006    0.17522994    0.19406000    0.11330000
opls_144-430    H    0.72087994    0.87687006    0.52566000    0.11730000
opls_144-431    H    0.32075000    0.17285000    0.02298000    0.11900000
opls_146-432    H    0.77259012    0.84505000    0.55732000    0.11040000
opls_146-433    H    0.82132994    0.79995000    0.59999000    0.11360000
opls_146-434    H    0.77587006    0.70954012    0.47311000    0.11570000
opls_146-435    H    0.72660988    0.75470988    0.43051000    0.11240000
