#======================================================================
# Crystal Data Generated By AuToFF
#----------------------------------------------------------------------

data_AuToFF_phase_1

_cell_length_a                         30.2866
_cell_length_b                         30.5078
_cell_length_c                         4.0100
_cell_angle_alpha                      90.00
_cell_angle_beta                       90.00
_cell_angle_gamma                      90.00
_symmetry_space_group_name_H-M_alt     'P 1'
_symmetry_space_group_IT_number        1

loop_
_space_group_symop_operation_xyz
   'x, y, z'

loop_
   _atom_site_label
   _atom_site_type_symbol
   _atom_site_fract_x
   _atom_site_fract_y
   _atom_site_fract_z
   _atom_site_charge
opls_145-0    C    0.22284013    0.68649985    0.02164090    -0.07500000
opls_700-1    C    0.26716997    0.67508998    0.06395012    0.03170000
opls_700-2    C    0.29920988    0.70937006    0.03636908    0.02630000
opls_700-3    C    0.28600008    0.75364005    0.01717955    0.01600000
opls_700-4    C    0.24058990    0.76364012    0.99945885    0.02610000
opls_700-5    C    0.20833999    0.72953015    0.97500998    0.02560000
opls_145-6    C    0.34476006    0.70003999    0.01772070    -0.13790000
opls_700-7    C    0.31745987    0.78712985    0.01587032    0.01600000
opls_700-8    C    0.36280005    0.77719993    0.98849875    0.02630000
opls_145-9    C    0.37540001    0.73272016    0.00156110    -0.13800000
opls_700-10    C    0.39490005    0.81140987    0.95910973    0.02330000
opls_145-11    C    0.38043986    0.85439002    0.00970075    -0.07500000
opls_700-12    C    0.33639993    0.86557012    0.06814963    0.02360000
opls_700-13    C    0.30431016    0.83135985    0.04239900    0.02610000
opls_145-14    C    0.25869989    0.84072991    0.03204988    -0.10690000
opls_145-15    C    0.22801008    0.80809990    0.01716958    -0.13790000
opls_700-16    C    0.44050999    0.80407994    0.88959102    0.07800000
opls_145-17    C    0.47431009    0.83078000    0.03594015    -0.07200000
opls_145-18    C    0.45562988    0.77067012    0.66617955    -0.07220000
opls_145-19    C    0.51824008    0.82371000    0.97053117    -0.07140000
opls_145-20    C    0.49982005    0.76333987    0.61281047    -0.09880000
opls_700-21    C    0.53258999    0.78952006    0.76116958    0.07600000
opls_700-22    C    0.32598014    0.90994991    0.15011970    0.07800000
opls_145-23    C    0.29173991    0.92148008    0.38009975    -0.07220000
opls_145-24    C    0.35048999    0.94596005    0.01441895    -0.07200000
opls_145-25    C    0.28203001    0.96439992    0.45272070    -0.09890000
opls_145-26    C    0.34088013    0.98861013    0.09711970    -0.07140000
opls_700-27    C    0.30625986    0.99940015    0.31642893    0.07600000
opls_700-28    C    0.16269010    0.73698988    0.90826933    0.07790000
opls_145-29    C    0.14751012    0.77016992    0.68296010    -0.07220000
opls_145-30    C    0.12896991    0.71031015    0.05571072    -0.07200000
opls_145-31    C    0.10332986    0.77690001    0.62519950    -0.09880000
opls_145-32    C    0.08503992    0.71703990    0.98814963    -0.07140000
opls_700-33    C    0.07061010    0.75063984    0.77361097    0.07150000
opls_700-34    C    0.27787999    0.63030995    0.12652120    0.07790000
opls_145-35    C    0.31258015    0.61717987    0.34784040    -0.07220000
opls_145-36    C    0.25313010    0.59533005    0.97799002    -0.07200000
opls_145-37    C    0.32257995    0.57378998    0.39938903    -0.09880000
opls_145-38    C    0.26290009    0.55216994    0.04135910    -0.07140000
opls_700-39    C    0.29812987    0.53985014    0.25030923    0.07600000
opls_142-40    C    0.57878005    0.78058005    0.69380050    0.10080000
opls_142-41    C    0.30973005    0.49456008    0.31686035    0.10180000
opls_145-42    C    0.65418997    0.80120002    0.76777057    0.25010000
opls_145-43    C    0.67386996    0.76270986    0.89015960    -0.10420000
opls_145-44    C    0.68196001    0.83310006    0.62709975    -0.10420000
opls_145-45    C    0.71914015    0.75665010    0.87410973    -0.10420000
opls_145-46    C    0.72717010    0.82666990    0.60796010    -0.10210000
opls_145-47    C    0.74704985    0.78846000    0.73252120    0.19080000
opls_145-48    C    0.85778991    0.74734002    0.82317955    0.18590000
opls_145-49    C    0.87756004    0.71154000    0.96079052    -0.14070000
opls_145-50    C    0.88363005    0.77902995    0.68216958    -0.12980000
opls_145-51    C    0.92229996    0.70748005    0.95915960    -0.13780000
opls_145-52    C    0.92840992    0.77495001    0.67922943    -0.13710000
opls_145-53    C    0.94817015    0.73907001    0.81861097    0.27240000
opls_145-54    C    0.29246994    0.41860016    0.24892020    0.24790000
opls_145-55    C    0.26044984    0.38985014    0.37638903    -0.10210000
opls_145-56    C    0.33303012    0.40059001    0.14710973    -0.10420000
opls_145-57    C    0.26869011    0.34533005    0.40310973    -0.10420000
opls_145-58    C    0.34095012    0.35598011    0.17110973    -0.10200000
opls_145-59    C    0.30910997    0.32713994    0.29972070    0.18090000
opls_145-60    C    0.29874994    0.21053009    0.39995012    0.18590000
opls_145-61    C    0.26870992    0.18184005    0.52791022    -0.13930000
opls_145-62    C    0.33524991    0.19434997    0.24207980    -0.13440000
opls_145-63    C    0.27484003    0.13779001    0.49913965    -0.12980000
opls_145-64    C    0.34135988    0.15033008    0.21223940    -0.13940000
opls_145-65    C    0.31127991    0.12160988    0.33983042    0.27430000
opls_142-66    C    0.29497996    0.04403005    0.40780050    0.12710000
opls_142-67    C    0.02442995    0.75890002    0.70031920    0.12700000
opls_750-68    N    0.60852984    0.80835000    0.79054115    -0.22880000
opls_750-69    N    0.28343987    0.46354998    0.21992020    -0.22830000
opls_750-70    N    0.79399008    0.78475013    0.71026933    -0.09930000
opls_750-71    N    0.81073016    0.75047004    0.83280050    -0.09940000
opls_750-72    N    0.31992994    0.28160012    0.31379052    -0.11580000
opls_750-73    N    0.29079989    0.25651997    0.43277057    -0.12390000
opls_750-74    N    0.99451011    0.73320987    0.82523940    -0.22700000
opls_750-75    N    0.31915005    0.07617986    0.29941895    -0.22620000
opls_146-76    H    0.19630001    0.66000990    0.02410973    0.05190000
opls_146-77    H    0.35662009    0.66457988    0.01594015    0.05190000
opls_146-78    H    0.41207993    0.72434000    0.99835910    0.05190000
opls_146-79    H    0.40512009    0.88259986    0.00446883    0.05190000
opls_146-80    H    0.24685009    0.87619002    0.03607980    0.05190000
opls_146-81    H    0.19155006    0.81734999    0.01925935    0.05190000
opls_146-82    H    0.46497989    0.85868008    0.21139900    0.05200000
opls_146-83    H    0.43077004    0.74936016    0.52734913    0.05190000
opls_146-84    H    0.54432984    0.84586008    0.08711970    0.05190000
opls_146-85    H    0.50960986    0.73503989    0.44245885    0.05190000
opls_146-86    H    0.27170993    0.89470004    0.50833915    0.05190000
opls_146-87    H    0.37856016    0.93851999    0.83368080    0.05190000
opls_146-88    H    0.25358013    0.97250998    0.62831920    0.05190000
opls_146-89    H    0.36122014    0.01652987    0.98720948    0.05190000
opls_146-90    H    0.17313003    0.79125011    0.55010973    0.05190000
opls_146-91    H    0.13835987    0.68272016    0.23384040    0.05190000
opls_146-92    H    0.09222990    0.80445001    0.45241895    0.05190000
opls_146-93    H    0.05899011    0.69507011    0.10716958    0.05190000
opls_146-94    H    0.33266989    0.64300998    0.48628928    0.05200000
opls_146-95    H    0.22473998    0.60405011    0.80353117    0.05190000
opls_146-96    H    0.35143991    0.56441009    0.56728928    0.05190000
opls_146-97    H    0.24221009    0.52508014    0.92337905    0.05190000
opls_144-98    H    0.58866000    0.74933984    0.55681047    0.03070000
opls_144-99    H    0.34173991    0.48649001    0.45332918    0.03070000
opls_146-100    H    0.65198008    0.73623991    0.00393017    0.05190000
opls_146-101    H    0.66737006    0.86490012    0.52635910    0.05190000
opls_146-102    H    0.73454993    0.72536007    0.97700998    0.05200000
opls_146-103    H    0.74909003    0.85271996    0.48905985    0.05190000
opls_146-104    H    0.85628991    0.68483994    0.07799002    0.05190000
opls_146-105    H    0.86775009    0.80923993    0.56554115    0.05190000
opls_146-106    H    0.93851010    0.67745986    0.07605985    0.05190000
opls_146-107    H    0.94962987    0.80153993    0.56007980    0.05190000
opls_146-108    H    0.22701987    0.40303988    0.45994015    0.05190000
opls_146-109    H    0.35998990    0.42278991    0.04295012    0.05200000
opls_146-110    H    0.24243989    0.32260012    0.51076060    0.05190000
opls_146-111    H    0.37393996    0.34194009    0.08538903    0.05190000
opls_146-112    H    0.23803993    0.19464989    0.66082045    0.05190000
opls_146-113    H    0.36068988    0.21801998    0.13495012    0.05190000
opls_146-114    H    0.24951001    0.11415015    0.60821945    0.05190000
opls_146-115    H    0.37187007    0.13712985    0.07949875    0.05190000
opls_144-116    H    0.26511989    0.05065000    0.57339900    0.03070000
opls_144-117    H    0.01472995    0.78769003    0.53461097    0.03070000
