#======================================================================
# Crystal Data Generated By AuToFF
#----------------------------------------------------------------------

data_AuToFF_phase_1

_cell_length_a                         21.3500
_cell_length_b                         21.3500
_cell_length_c                         3.5050
_cell_angle_alpha                      90.00
_cell_angle_beta                       90.00
_cell_angle_gamma                      120.00
_symmetry_space_group_name_H-M_alt     'P 1'
_symmetry_space_group_IT_number        1

loop_
_space_group_symop_operation_xyz
   'x, y, z'

loop_
   _atom_site_label
   _atom_site_type_symbol
   _atom_site_fract_x
   _atom_site_fract_y
   _atom_site_fract_z
   _atom_site_charge
opls_567-0    C    0.34139005    0.73543022    0.00000000    -0.03230000
opls_700-1    C    0.27215971    0.67537983    0.00000000    0.00430000
opls_567-2    C    0.39685032    0.54778027    0.00000000    -0.03120000
opls_716-3    C    0.32674021    0.53218018    0.00000000    -0.12880000
opls_142-4    C    0.42567010    0.50220015    0.00000000    0.07360000
opls_145-5    C    0.52810012    0.49395013    0.00000000    0.21080000
opls_145-6    C    0.60335974    0.53106983    0.00000000    -0.16820000
opls_145-7    C    0.48780001    0.41843000    0.00000000    -0.20550000
opls_145-8    C    0.52334991    0.38083002    0.00000000    -0.19810000
opls_700-9    C    0.59863996    0.41667009    0.00000000    0.08750000
opls_145-10    C    0.63876000    0.49233030    0.00000000    -0.13460000
opls_145-11    C    0.70716989    0.40752010    0.00000000    -0.13210000
opls_700-12    C    0.63299984    0.37400999    0.00000000    0.07640000
opls_567-13    C    0.26457010    0.60595988    0.00000000    -0.03230000
opls_700-14    C    0.32462005    0.59678014    0.00000000    0.00430000
opls_567-15    C    0.45221981    0.84907007    0.00000000    -0.03120000
opls_716-16    C    0.46782009    0.79456009    0.00000000    -0.12880000
opls_142-17    C    0.49780016    0.92347012    0.00000000    0.07360000
opls_145-18    C    0.50605014    0.03414993    0.00000000    0.21080000
opls_145-19    C    0.46893012    0.07229021    0.00000000    -0.16820000
opls_145-20    C    0.58156988    0.06937020    0.00000000    -0.20550000
opls_145-21    C    0.61916998    0.14251981    0.00000000    -0.19810000
opls_700-22    C    0.58333020    0.18197001    0.00000000    0.08750000
opls_145-23    C    0.50766986    0.14643011    0.00000000    -0.13460000
opls_145-24    C    0.59247978    0.29964997    0.00000000    -0.13200000
opls_700-25    C    0.62599003    0.25898990    0.00000000    0.07640000
opls_567-26    C    0.39403985    0.65860990    0.00000000    -0.03230000
opls_700-27    C    0.40321978    0.72784002    0.00000000    0.00430000
opls_567-28    C    0.15093013    0.60315020    0.00000000    -0.03120000
opls_716-29    C    0.20543997    0.67326027    0.00000000    -0.12870000
opls_142-30    C    0.07653001    0.57433027    0.00000000    0.07360000
opls_145-31    C    0.96585020    0.47189994    0.00000000    0.21090000
opls_145-32    C    0.92771014    0.39663996    0.00000000    -0.16820000
opls_145-33    C    0.93063011    0.51219980    0.00000000    -0.20550000
opls_145-34    C    0.85748012    0.47665017    0.00000000    -0.19810000
opls_700-35    C    0.81802983    0.40135990    0.00000000    0.08770000
opls_145-36    C    0.85356995    0.36124013    0.00000000    -0.13460000
opls_145-37    C    0.70034986    0.29282993    0.00000000    -0.13210000
opls_700-38    C    0.74101013    0.36700011    0.00000000    0.07640000
opls_633-39    S    0.46177993    0.63875987    0.00000000    0.07470000
opls_633-40    S    0.36124039    0.82302035    0.00000000    0.07460000
opls_633-41    S    0.17697995    0.53822032    0.00000000    0.07460000
opls_750-42    N    0.49556991    0.53504990    0.00000000    -0.20670000
opls_750-43    N    0.46494996    0.96052005    0.00000000    -0.20680000
opls_750-44    N    0.03948013    0.50443005    0.00000000    -0.20680000
opls_570-45    H    0.28002015    0.47773023    0.00000000    0.10280000
opls_144-46    H    0.38890014    0.44346023    0.00000000    0.06980000
opls_146-47    H    0.63181008    0.59000986    0.00000000    0.10180000
opls_146-48    H    0.42906013    0.38895024    0.00000000    0.10960000
opls_146-49    H    0.49212991    0.32221017    0.00000000    0.10820000
opls_146-50    H    0.69752015    0.52154991    0.00000000    0.10800000
opls_146-51    H    0.73818985    0.46585980    0.00000000    0.11000000
opls_570-52    H    0.52227024    0.80229036    0.00000000    0.10270000
opls_144-53    H    0.55654027    0.94544026    0.00000000    0.06980000
opls_146-54    H    0.40999001    0.04180016    0.00000000    0.10180000
opls_146-55    H    0.61104986    0.04011003    0.00000000    0.10960000
opls_146-56    H    0.67778999    0.16992002    0.00000000    0.10820000
opls_146-57    H    0.47845005    0.17596989    0.00000000    0.10800000
opls_146-58    H    0.53414008    0.27232980    0.00000000    0.11010000
opls_570-59    H    0.19770988    0.71997995    0.00000000    0.10270000
opls_144-60    H    0.05455986    0.61110005    0.00000000    0.06980000
opls_146-61    H    0.95819990    0.36818997    0.00000000    0.10180000
opls_146-62    H    0.95989027    0.57094027    0.00000000    0.10960000
opls_146-63    H    0.83008011    0.50786981    0.00000000    0.10830000
opls_146-64    H    0.82403026    0.30248020    0.00000000    0.10790000
opls_146-65    H    0.72766980    0.26180986    0.00000000    0.11000000
