#======================================================================
# Crystal Data Generated By AuToFF
#----------------------------------------------------------------------

data_AuToFF_phase_1

_cell_length_a                         30.0500
_cell_length_b                         30.0500
_cell_length_c                         3.8200
_cell_angle_alpha                      90.00
_cell_angle_beta                       90.00
_cell_angle_gamma                      120.00
_symmetry_space_group_name_H-M_alt     'P 1'
_symmetry_space_group_IT_number        1

loop_
_space_group_symop_operation_xyz
   'x, y, z'

loop_
   _atom_site_label
   _atom_site_type_symbol
   _atom_site_fract_x
   _atom_site_fract_y
   _atom_site_fract_z
   _atom_site_charge
opls_700-0    C    0.35779983    0.63259999    0.03330105    -0.04540000
opls_700-1    C    0.64219984    0.36740001    0.02509948    -0.04540000
opls_145-2    C    0.61200000    0.31070018    0.02519895    -0.07190000
opls_166-3    C    0.51750003    0.55130022    0.91830105    0.26230000
opls_145-4    C    0.54979986    0.52629989    0.91140052    -0.20650000
opls_700-5    C    0.53449998    0.47410012    0.01790052    -0.06980000
opls_166-6    C    0.48250017    0.44870016    0.14030105    0.26230000
opls_145-7    C    0.45020014    0.47370011    0.14700000    -0.20650000
opls_700-8    C    0.46550002    0.52589988    0.04050000    -0.06980000
opls_716-9    C    0.42530006    0.54949996    0.05200000    0.35620000
opls_716-10    C    0.57469994    0.45050004    0.00640052    0.35620000
opls_182-11    C    0.58569986    0.62920006    0.64790052    0.04640000
opls_716-12    C    0.38150000    0.59250017    0.04859948    0.35620000
opls_716-13    C    0.61850019    0.40750021    0.00969895    0.35720000
opls_135-14    C    0.59259998    0.67959995    0.51609948    -0.45250000
opls_182-15    C    0.41430003    0.37090024    0.41190052    0.04640000
opls_135-16    C    0.40760010    0.32059986    0.54600000    -0.45030000
opls_145-17    C    0.38799996    0.68919992    0.03319895    -0.07190000
opls_700-18    C    0.36740003    0.72520006    0.03330105    -0.04540000
opls_700-19    C    0.63259997    0.27479994    0.02509948    -0.04540000
opls_145-20    C    0.68929993    0.30130003    0.02519895    -0.07190000
opls_166-21    C    0.44870006    0.96620012    0.91830105    0.26230000
opls_145-22    C    0.47370017    0.02350018    0.91140052    -0.20650000
opls_700-23    C    0.52590010    0.06039988    0.01790052    -0.06980000
opls_166-24    C    0.55129994    0.03379988    0.14030105    0.26230000
opls_145-25    C    0.52630002    0.97650021    0.14700000    -0.20650000
opls_700-26    C    0.47409990    0.93960012    0.04050000    -0.06980000
opls_716-27    C    0.45049997    0.87579993    0.05200000    0.35620000
opls_716-28    C    0.54950003    0.12420007    0.00640052    0.35620000
opls_182-29    C    0.37080021    0.95650025    0.64790052    0.04640000
opls_716-30    C    0.40750013    0.78900026    0.04859948    0.35620000
opls_716-31    C    0.59250006    0.21100013    0.00969895    0.35720000
opls_135-32    C    0.32039990    0.91300012    0.51609948    -0.45250000
opls_182-33    C    0.62909992    0.04339984    0.41190052    0.04640000
opls_135-34    C    0.67940010    0.08699988    0.54600000    -0.45030000
opls_145-35    C    0.31080013    0.69880026    0.03319895    -0.07190000
opls_700-36    C    0.27479981    0.64219995    0.03330105    -0.04540000
opls_700-37    C    0.72520019    0.35780005    0.02509948    -0.04540000
opls_145-38    C    0.69870026    0.38800018    0.02519895    -0.07190000
opls_166-39    C    0.03380010    0.48250004    0.91830105    0.26230000
opls_145-40    C    0.97649997    0.45019993    0.91140052    -0.20650000
opls_700-41    C    0.93959992    0.46550000    0.01790052    -0.06980000
opls_166-42    C    0.96619990    0.51749996    0.14030105    0.26230000
opls_145-43    C    0.02350003    0.54980007    0.14700000    -0.20650000
opls_700-44    C    0.06040008    0.53450000    0.04050000    -0.06980000
opls_716-45    C    0.12419997    0.57470010    0.05200000    0.35630000
opls_716-46    C    0.87580003    0.42529990    0.00640052    0.35630000
opls_182-47    C    0.04350012    0.41430007    0.64790052    0.04640000
opls_716-48    C    0.21100006    0.61849996    0.04859948    0.35620000
opls_716-49    C    0.78899994    0.38150004    0.00969895    0.35720000
opls_135-50    C    0.08699979    0.40739992    0.51609948    -0.45250000
opls_182-51    C    0.95660005    0.58569993    0.41190052    0.04640000
opls_135-52    C    0.91300013    0.59240026    0.54600000    -0.45030000
opls_145-53    C    0.30120010    0.61200020    0.03319895    -0.07190000
opls_180-54    O    0.43049995    0.59819990    0.00700000    -0.26850000
opls_180-55    O    0.56950001    0.40170020    0.05150000    -0.26800000
opls_179-56    O    0.53630001    0.60180003    0.80230105    -0.21300000
opls_179-57    O    0.46369999    0.39819997    0.25640052    -0.20960000
opls_180-58    O    0.40180001    0.83230019    0.00700000    -0.26870000
opls_180-59    O    0.59830005    0.16780010    0.05150000    -0.26790000
opls_179-60    O    0.39820020    0.93450023    0.80230105    -0.21300000
opls_179-61    O    0.60180000    0.06550016    0.25640052    -0.20960000
opls_180-62    O    0.16770004    0.56949992    0.00700000    -0.26870000
opls_180-63    O    0.83220012    0.43050008    0.05150000    -0.26790000
opls_179-64    O    0.06549998    0.46370013    0.80230105    -0.21300000
opls_179-65    O    0.93450021    0.53630025    0.25640052    -0.20960000
opls_750-66    N    0.37510006    0.51709995    0.11769895    -0.20550000
opls_750-67    N    0.34939996    0.54230009    0.11469895    -0.20530000
opls_750-68    N    0.62480011    0.48290005    0.94050000    -0.20770000
opls_750-69    N    0.65060000    0.45760001    0.94340052    -0.20760000
opls_750-70    N    0.48290029    0.85800025    0.11769895    -0.20540000
opls_750-71    N    0.45770011    0.80710005    0.11469895    -0.20530000
opls_750-72    N    0.51710000    0.14189984    0.94050000    -0.20770000
opls_750-73    N    0.54240010    0.19299986    0.94340052    -0.20760000
opls_750-74    N    0.14200018    0.62490019    0.11769895    -0.20550000
opls_750-75    N    0.19290013    0.65060025    0.11469895    -0.20530000
opls_750-76    N    0.85809989    0.37520010    0.94050000    -0.20770000
opls_750-77    N    0.80699990    0.34940013    0.94340052    -0.20760000
opls_185-78    H    0.61610014    0.63679995    0.84259948    0.05780000
opls_185-79    H    0.58890015    0.60750014    0.42490052    0.05520000
opls_140-80    H    0.63030017    0.70240001    0.38750000    0.13340000
opls_140-81    H    0.58910016    0.70159998    0.73559948    0.10160000
opls_140-82    H    0.56140006    0.67169996    0.32790052    0.16870000
opls_185-83    H    0.38390016    0.36310015    0.21759948    0.05640000
opls_185-84    H    0.41119999    0.39279997    0.63400000    0.05520000
opls_140-85    H    0.43949982    0.32879996    0.72850000    0.16870000
opls_140-86    H    0.37040005    0.29849993    0.68269895    0.10170000
opls_140-87    H    0.40960003    0.29769990    0.32669895    0.10180000
opls_146-88    H    0.57079989    0.29389995    0.02130105    0.11030000
opls_146-89    H    0.58859988    0.54829992    0.81890052    0.10590000
opls_146-90    H    0.41140009    0.45160017    0.23930105    0.10590000
opls_146-91    H    0.42920011    0.70610005    0.03709948    0.10930000
opls_185-92    H    0.36320024    0.97930031    0.84259948    0.05780000
opls_185-93    H    0.39250014    0.98140029    0.42490052    0.05520000
opls_140-94    H    0.29760001    0.92790018    0.38750000    0.13340000
opls_140-95    H    0.29840005    0.88750026    0.73559948    0.10160000
opls_140-96    H    0.32829999    0.88970015    0.32790052    0.16870000
opls_185-97    H    0.63690016    0.02079998    0.21759948    0.05640000
opls_185-98    H    0.60719995    0.01839990    0.63400000    0.05530000
opls_140-99    H    0.67119985    0.11069987    0.72850000    0.16870000
opls_140-100    H    0.70150008    0.07190000    0.68269895    0.10170000
opls_140-101    H    0.70230004    0.11189991    0.32669895    0.10180000
opls_146-102    H    0.70609987    0.27689991    0.02130105    0.11030000
opls_146-103    H    0.45170009    0.04030001    0.81890052    0.10590000
opls_146-104    H    0.54840030    0.95980028    0.23930105    0.10590000
opls_146-105    H    0.29390013    0.72310009    0.03709948    0.10930000
opls_185-106    H    0.02070015    0.38390013    0.84259948    0.05780000
opls_185-107    H    0.01859990    0.41109996    0.42490052    0.05520000
opls_140-108    H    0.07210001    0.36970019    0.38750000    0.13340000
opls_140-109    H    0.11249999    0.41090014    0.73559948    0.10160000
opls_140-110    H    0.11029995    0.43859990    0.32790052    0.16870000
opls_185-111    H    0.97920021    0.61610025    0.21759948    0.05640000
opls_185-112    H    0.98160007    0.58880013    0.63400000    0.05520000
opls_140-113    H    0.88930000    0.56050017    0.72850000    0.16880000
opls_140-114    H    0.92809987    0.62960007    0.68269895    0.10170000
opls_140-115    H    0.88810026    0.59040019    0.32669895    0.10180000
opls_146-116    H    0.72309990    0.42920013    0.02130105    0.11030000
opls_146-117    H    0.95970003    0.41140007    0.81890052    0.10590000
opls_146-118    H    0.04020013    0.58859993    0.23930105    0.10590000
opls_146-119    H    0.27689996    0.57080025    0.03709948    0.10930000
