#======================================================================
# Crystal Data Generated By AuToFF
#----------------------------------------------------------------------

data_AuToFF_phase_1

_cell_length_a                         30.5675
_cell_length_b                         30.5675
_cell_length_c                         3.7218
_cell_angle_alpha                      90.00
_cell_angle_beta                       90.00
_cell_angle_gamma                      120.00
_symmetry_space_group_name_H-M_alt     'P 1'
_symmetry_space_group_IT_number        1

loop_
_space_group_symop_operation_xyz
   'x, y, z'

loop_
   _atom_site_label
   _atom_site_type_symbol
   _atom_site_fract_x
   _atom_site_fract_y
   _atom_site_fract_z
   _atom_site_charge
opls_145-0    C    0.64733008    0.28250019    0.26874093    -0.11280000
opls_142-1    C    0.51880013    0.53170020    0.62377076    0.08870000
opls_145-2    C    0.42114010    0.57814019    0.77744908    0.14420000
opls_145-3    C    0.40738002    0.53539993    0.61525069    -0.22590000
opls_145-4    C    0.43873991    0.51983003    0.56687893    -0.22390000
opls_145-5    C    0.48470013    0.54678998    0.68085872    0.00690000
opls_145-6    C    0.49839001    0.58909015    0.84916976    -0.22820000
opls_145-7    C    0.46693001    0.60455995    0.89965071    -0.22700000
opls_280-8    C    0.29923000    0.68191006    0.05598098    0.19550000
opls_142-9    C    0.39962010    0.63928993    0.91846956    0.09060000
opls_145-10    C    0.28338020    0.63208011    0.00864098    -0.11110000
opls_280-11    C    0.61647994    0.30230018    0.30986082    0.19560000
opls_145-12    C    0.53705007    0.47555986    0.35994949    0.11470000
opls_145-13    C    0.58534000    0.50142017    0.40084905    -0.24010000
opls_145-14    C    0.61327026    0.48238022    0.31821968    0.05660000
opls_145-15    C    0.59277997    0.43658014    0.19246870    0.10750000
opls_145-16    C    0.54487019    0.41155014    0.13708958    -0.24060000
opls_145-17    C    0.51693005    0.43044995    0.22054114    0.05430000
opls_142-18    C    0.60574014    0.36857001    0.20705035    0.09080000
opls_135-19    C    0.46572011    0.40137004    0.15709066    -0.44700000
opls_135-20    C    0.48905005    0.15371995    0.37274974    -0.44700000
opls_145-21    C    0.71749991    0.36482986    0.26874093    -0.11180000
opls_142-22    C    0.46830001    0.98710007    0.62377076    0.08870000
opls_145-23    C    0.42185986    0.84300000    0.77744908    0.14420000
opls_145-24    C    0.46460022    0.87198018    0.61525069    -0.22600000
opls_145-25    C    0.48017020    0.91891012    0.56687893    -0.22390000
opls_145-26    C    0.45320986    0.93791003    0.68085872    0.00690000
opls_145-27    C    0.41091010    0.90930005    0.84916976    -0.22820000
opls_145-28    C    0.39543990    0.86237011    0.89965071    -0.22700000
opls_280-29    C    0.31809001    0.61732011    0.05598098    0.19550000
opls_142-30    C    0.36071001    0.76032998    0.91846956    0.09060000
opls_145-31    C    0.36791999    0.65129987    0.00864098    -0.11110000
opls_280-32    C    0.69770022    0.31418018    0.30986082    0.19550000
opls_145-33    C    0.52443999    0.06149010    0.35994949    0.11470000
opls_145-34    C    0.49857995    0.08392002    0.40084905    -0.24020000
opls_145-35    C    0.51762002    0.13088999    0.31821968    0.05660000
opls_145-36    C    0.56341999    0.15619991    0.19246870    0.10750000
opls_145-37    C    0.58845018    0.13332009    0.13708958    -0.24060000
opls_145-38    C    0.56955000    0.08648006    0.22054114    0.05430000
opls_142-39    C    0.63143004    0.23717005    0.20705035    0.09080000
opls_135-40    C    0.59862993    0.06435008    0.15709066    -0.44700000
opls_135-41    C    0.84627981    0.33532989    0.37274974    -0.44700000
opls_145-42    C    0.63517001    0.35266995    0.26874093    -0.11180000
opls_142-43    C    0.01290005    0.48120011    0.62377076    0.08870000
opls_145-44    C    0.15700023    0.57886019    0.77744908    0.14420000
opls_145-45    C    0.12802009    0.59261989    0.61525069    -0.22600000
opls_145-46    C    0.08108989    0.56125986    0.56687893    -0.22390000
opls_145-47    C    0.06209001    0.51530000    0.68085872    0.00690000
opls_145-48    C    0.09070008    0.50161018    0.84916976    -0.22820000
opls_145-49    C    0.13763009    0.53306994    0.89965071    -0.22700000
opls_280-50    C    0.38268019    0.70077020    0.05598098    0.19550000
opls_142-51    C    0.23966989    0.60038010    0.91846956    0.09060000
opls_145-52    C    0.34870013    0.71662002    0.00864098    -0.11110000
opls_280-53    C    0.68582004    0.38352001    0.30986082    0.19550000
opls_145-54    C    0.93850994    0.46295004    0.35994949    0.11470000
opls_145-55    C    0.91608024    0.41466019    0.40084905    -0.24010000
opls_145-56    C    0.86911024    0.38673017    0.31821968    0.05660000
opls_145-57    C    0.84380004    0.40721994    0.19246870    0.10750000
opls_145-58    C    0.86668015    0.45513015    0.13708958    -0.24060000
opls_145-59    C    0.91351995    0.48306999    0.22054114    0.05430000
opls_142-60    C    0.76282982    0.39425995    0.20705035    0.09080000
opls_135-61    C    0.93564996    0.53427988    0.15709066    -0.44690000
opls_135-62    C    0.66467014    0.51095015    0.37274974    -0.44690000
opls_144-63    H    0.55282000    0.55222019    0.73715944    0.10130000
opls_146-64    H    0.42708009    0.48694991    0.43703047    0.21460000
opls_146-65    H    0.53347998    0.61014014    0.94369122    0.21570000
opls_146-66    H    0.47865990    0.63674991    0.03890053    0.21460000
opls_144-67    H    0.43523005    0.66641005    0.89272126    0.10130000
opls_146-68    H    0.48575996    0.85803009    0.52173948    0.21570000
opls_146-69    H    0.60180012    0.53668014    0.49314042    0.21590000
opls_146-70    H    0.52895001    0.37723985    0.02399108    0.21480000
opls_144-71    H    0.56903999    0.34428002    0.21259068    0.10130000
opls_910-72    H    0.35431000    0.57040000    0.73234994    0.25840000
opls_910-73    H    0.65320016    0.43646002    0.00860068    0.25820000
opls_140-74    H    0.45216008    0.36744014    0.29073029    0.14250000
opls_140-75    H    0.45905000    0.39510989    0.87039873    0.10570000
opls_140-76    H    0.44605003    0.41774985    0.25505132    0.14240000
opls_140-77    H    0.45578996    0.13035018    0.50653985    0.14240000
opls_140-78    H    0.48109984    0.16383999    0.11468107    0.10020000
opls_140-79    H    0.50828017    0.18514005    0.53735021    0.14250000
opls_144-80    H    0.44777978    0.00059987    0.73715944    0.10130000
opls_146-81    H    0.51304992    0.94013009    0.43703047    0.21460000
opls_146-82    H    0.38986009    0.92334004    0.94369122    0.21570000
opls_146-83    H    0.36325001    0.84191018    0.03890053    0.21460000
opls_144-84    H    0.33359001    0.76882000    0.89272126    0.10140000
opls_146-85    H    0.14196996    0.62772989    0.52173948    0.21570000
opls_146-86    H    0.46332009    0.06511994    0.49314042    0.21590000
opls_146-87    H    0.62276001    0.15170992    0.02399108    0.21480000
opls_144-88    H    0.65572018    0.22476006    0.21259068    0.10130000
opls_910-89    H    0.42959996    0.78391016    0.73234994    0.25840000
opls_910-90    H    0.56354001    0.21673996    0.00860068    0.25820000
opls_140-91    H    0.63256010    0.08472010    0.29073029    0.14240000
opls_140-92    H    0.60488985    0.06393983    0.87039873    0.10560000
opls_140-93    H    0.58225003    0.02829984    0.25505132    0.14240000
opls_140-94    H    0.86964986    0.32543990    0.50653985    0.14240000
opls_140-95    H    0.83616006    0.31726001    0.11468107    0.10020000
opls_140-96    H    0.81486000    0.32314014    0.53735021    0.14240000
opls_144-97    H    0.99939989    0.44717993    0.73715944    0.10130000
opls_146-98    H    0.05986999    0.57292000    0.43703047    0.21460000
opls_146-99    H    0.07666012    0.46652020    0.94369122    0.21570000
opls_146-100    H    0.15809009    0.52133991    0.03890053    0.21470000
opls_144-101    H    0.23117994    0.56476995    0.89272126    0.10130000
opls_146-102    H    0.37227009    0.51424002    0.52173948    0.21570000
opls_146-103    H    0.93488012    0.39819992    0.49314042    0.21590000
opls_146-104    H    0.84828979    0.47104985    0.02399108    0.21480000
opls_144-105    H    0.77523983    0.43095992    0.21259068    0.10130000
opls_910-106    H    0.21609022    0.64569022    0.73234994    0.25830000
opls_910-107    H    0.78326016    0.34680002    0.00860068    0.25830000
opls_140-108    H    0.91528001    0.54784013    0.29073029    0.14240000
opls_140-109    H    0.93605996    0.54094989    0.87039873    0.10560000
opls_140-110    H    0.97170008    0.55394993    0.25505132    0.14250000
opls_140-111    H    0.67455985    0.54420991    0.50653985    0.14250000
opls_140-112    H    0.68274009    0.51889999    0.11468107    0.10020000
opls_140-113    H    0.67686001    0.49172019    0.53735021    0.14240000
opls_238-114    N    0.38781020    0.59311021    0.81932130    -0.31210000
opls_238-115    N    0.62070995    0.41589016    0.12108120    -0.31190000
opls_750-116    N    0.50778002    0.49439998    0.44448923    -0.16620000
opls_238-117    N    0.40688985    0.79469996    0.81932130    -0.31210000
opls_238-118    N    0.58410980    0.20481992    0.12108120    -0.31200000
opls_750-119    N    0.50559998    0.01338006    0.44448923    -0.16610000
opls_238-120    N    0.20530014    0.61219021    0.81932130    -0.31210000
opls_238-121    N    0.79517992    0.37928992    0.12108120    -0.31190000
opls_750-122    N    0.98662000    0.49221996    0.44448923    -0.16620000
opls_281-123    O    0.42213017    0.72780004    0.14950024    -0.37030000
opls_281-124    O    0.57622018    0.27763018    0.39656886    -0.36930000
opls_281-125    O    0.27220002    0.69432987    0.14950024    -0.37030000
opls_281-126    O    0.72236994    0.29858988    0.39656886    -0.36930000
opls_281-127    O    0.30567014    0.57787009    0.14950024    -0.37020000
opls_281-128    O    0.70140988    0.42377994    0.39656886    -0.36940000
